Circuit: * C:\Users\jcasa\Documents\projects\UFHVSW\ltspice\halfbridge_pn.asc

Warning: Multiple definitions of model "2n7002" Type: Vdmos1
WARNING: Less than two connections to node V+.  This node is used by V1.
Direct Newton iteration for .op point succeeded.

Date: Fri Mar 25 12:58:39 2016
Total elapsed time: 0.805 seconds.

tnom = 27
temp = 27
method = modified trap
totiter = 135871
traniter = 135864
tranpoints = 20913
accept = 15767
rejected = 5146
matrix size = 30
fillins = 0
solver = Normal
Matrix Compiler1: 1.71 KB object code size  0.4/0.2/[0.2]
Matrix Compiler2: 2.85 KB object code size  0.3/0.3/[0.2]


