Circuit: * C:\Users\jcasa\Documents\projects\UFHVSW\ltspice\halfbridge_implant.asc

WARNING: Node N011 is floating.
WARNING: Node N021 is floating.
WARNING: Node N010 is floating.
WARNING: Node N020 is floating.

Direct Newton iteration for .op point succeeded.

Date: Thu Mar 17 07:17:21 2016
Total elapsed time: 8.520 seconds.

tnom = 27
temp = 27
method = modified trap
totiter = 658291
traniter = 658269
tranpoints = 173598
accept = 129837
rejected = 43761
matrix size = 91
fillins = 40
solver = Normal
Thread vector: 6.8/4.4[5] 5.1/3.5[5] 0.5/0.6[1] 0.3/1.6[1]  2592/500
Matrix Compiler1: 6.85 KB object code size  1.2/0.7/[0.6]
Matrix Compiler2: 7.53 KB object code size  0.6/0.8/[0.4]


