Circuit: * C:\Users\jcasa\Documents\projects\HVSquareWave\ltspice\halfbridge_implant_mod.asc

WARNING: Node N019 is floating.
WARNING: Node N008 is floating.

WARNING: Less than two connections to node LV.  This node is used by V4.
Singular matrix:  Check node g6
   Iteration No. 1
Direct Newton iteration failed to find .op point.  (Use ".option noopiter" to skip.)
Starting Gmin stepping
Gmin = 10
Gmin = 1.07374
Gmin = 0.115292
Gmin = 0.0123794
Gmin = 0.00132923
Gmin = 0.000142725
Gmin = 1.5325e-005
Gmin = 1.6455e-006
Gmin = 1.76685e-007
Gmin = 1.89714e-008
Gmin = 2.03704e-009
Gmin = 2.18725e-010
Gmin = 2.34854e-011
Gmin = 2.52173e-012
Gmin = 2.70769e-013
Gmin = 0
Gmin stepping succeeded in finding the operating point.

Heightened Def Con from 5.36276e-006 to 5.36313e-006
Heightened Def Con from 5.36463e-006 to 5.3649e-006
Heightened Def Con from 5.36521e-006 to 5.36559e-006
Heightened Def Con from 5.36756e-006 to 5.36794e-006
Heightened Def Con from 5.36947e-006 to 5.3696e-006
Heightened Def Con from 5.36981e-006 to 5.36982e-006
Heightened Def Con from 5.37009e-006 to 5.37046e-006
Heightened Def Con from 5.37047e-006 to 5.37147e-006
Heightened Def Con from 5.37148e-006 to 5.37151e-006
Heightened Def Con from 5.37152e-006 to 5.37154e-006
Heightened Def Con from 5.37154e-006 to 5.37159e-006
Heightened Def Con from 5.37215e-006 to 5.3724e-006
Heightened Def Con from 5.37246e-006 to 5.37558e-006
Heightened Def Con from 5.37559e-006 to 5.37871e-006
Heightened Def Con from 5.37904e-006 to 5.37917e-006
Heightened Def Con from 5.37917e-006 to 5.38029e-006
Heightened Def Con from 5.3812e-006 to 5.38321e-006
Heightened Def Con from 5.38325e-006 to 5.38437e-006
Heightened Def Con from 5.38462e-006 to 5.38564e-006
Heightened Def Con from 5.38564e-006 to 5.39176e-006
Heightened Def Con from 5.39436e-006 to 5.39736e-006
Heightened Def Con from 5.39837e-006 to 5.40137e-006
Heightened Def Con from 5.44148e-006 to 5.4415e-006
Heightened Def Con from 5.4415e-006 to 5.44175e-006
Heightened Def Con from 5.98566e-006 to 5.98679e-006
Heightened Def Con from 6e-006 to 6.003e-006
Heightened Def Con from 6.02296e-006 to 6.02508e-006
Heightened Def Con from 6.02958e-006 to 6.02968e-006
Heightened Def Con from 6.02982e-006 to 6.02987e-006
Heightened Def Con from 6.02987e-006 to 6.02987e-006
Heightened Def Con from 6.02987e-006 to 6.03011e-006
Heightened Def Con from 6.0303e-006 to 6.03067e-006
Heightened Def Con from 6.03073e-006 to 6.031e-006
Heightened Def Con from 6.03125e-006 to 6.03237e-006
Heightened Def Con from 6.03237e-006 +to 6.03637e-006
Heightened Def Con from 6.03637e-006 to 6.0375e-006
Heightened Def Con from 6.0375e-006 to 6.0375e-006
Heightened Def Con from 6.0375e-006 to 6.0375e-006
Heightened Def Con from 6.0375e-006 to 6.0385e-006
Heightened Def Con from 6.0385e-006 to 6.0385e-006
Heightened Def Con from 6.0385e-006 to 6.03962e-006
Heightened Def Con from 6.04037e-006 +to 6.04037e-006
Heightened Def Con from 6.04037e-006 to 6.04039e-006
Heightened Def Con from 6.04039e-006 to 6.04039e-006
Heightened Def Con from 6.04039e-006 to 6.04039e-006
Heightened Def Con from 6.04039e-006 to 6.04052e-006
Heightened Def Con from 6.04052e-006 to 6.04152e-006
Heightened Def Con from 6.04152e-006 to 6.04352e-006
Heightened Def Con from 6.04352e-006 to 6.04364e-006
Heightened Def Con from 6.04364e-006 to 6.04367e-006
Heightened Def Con from 6.04367e-006 to 6.04367e-006
Heightened Def Con from 6.04367e-006 to 6.04394e-006
Heightened Def Con from 6.04394e-006 to 6.04395e-006
Heightened Def Con from 6.04395e-006 to 6.04395e-006
Heightened Def Con from 6.04395e-006 to 6.04396e-006
Heightened Def Con from 6.04396e-006 to 6.04396e-006
Heightened Def Con from 6.04396e-006 to 6.04421e-006
Heightened Def Con from 6.04421e-006 to 6.04423e-006
Heightened Def Con from 6.04423e-006 to 6.04423e-006
Heightened Def Con from 6.04423e-006 to 6.04423e-006
Heightened Def Con from 6.04423e-006 to 6.04423e-006
Heightened Def Con from 6.04423e-006 +to 6.04435e-006
Heightened Def Con from 6.04435e-006 to 6.04435e-006
Heightened Def Con from 6.04435e-006 to 6.04435e-006
Heightened Def Con from 6.04435e-006 to 6.04448e-006
Heightened Def Con from 6.04449e-006 to 6.04486e-006
Heightened Def Con from 6.04486e-006 to 6.04486e-006
Heightened Def Con from 6.04486e-006 to 6.04511e-006
Heightened Def Con from 6.04511e-006 to 6.04511e-006
Heightened Def Con from 6.04511e-006 to 6.04511e-006
Heightened Def Con from 6.04511e-006 ++to 6.04511e-006
Heightened Def Con from 6.04511e-006 ++to 6.04511e-006
Heightened Def Con from 6.04511e-006 +to 6.04512e-006
Heightened Def Con from 6.04512e-006 to 6.04512e-006
Heightened Def Con from 6.04512e-006 to 6.04512e-006
Heightened Def Con from 6.04512e-006 to 6.04524e-006
Heightened Def Con from 6.04524e-006 to 6.04524e-006
Heightened Def Con from 6.04524e-006 to 6.04524e-006
Heightened Def Con from 6.04524e-006 to 6.04549e-006
Heightened Def Con from 6.04549e-006 to 6.04549e-006
Heightened Def Con from 6.04549e-006 to 6.04551e-006
Heightened Def Con from 6.04552e-006 +to 6.04552e-006
Heightened Def Con from 6.04552e-006 to 6.04552e-006
Heightened Def Con from 6.04552e-006 to 6.04577e-006
Heightened Def Con from 6.04577e-006 to 6.04577e-006
Heightened Def Con from 6.04577e-006 to 6.04577e-006
Heightened Def Con from 6.04577e-006 to 6.04577e-006
Heightened Def Con from 6.04577e-006 to 6.04577e-006
Heightened Def Con from 6.04577e-006 +to 6.04577e-006
Heightened Def Con from 6.04577e-006 to 6.04777e-006
Heightened Def Con from 6.04777e-006 to 6.04777e-006
Heightened Def Con from 6.04777e-006 to 6.0478e-006
Heightened Def Con from 6.0478e-006 to 6.0478e-006
Heightened Def Con from 6.0478e-006 to 6.0478e-006
Heightened Def Con from 6.0478e-006 to 6.0478e-006
Heightened Def Con from 6.0478e-006 to 6.0478e-006
Heightened Def Con from 6.0478e-006 to 6.04792e-006
Heightened Def Con from 6.04792e-006 to 6.04794e-006
Heightened Def Con from 6.04794e-006 to 6.04794e-006
Heightened Def Con from 6.04794e-006 +to 6.04794e-006
Heightened Def Con from 6.04794e-006 to 6.04794e-006
Heightened Def Con from 6.04794e-006 to 6.04794e-006
Heightened Def Con from 6.04794e-006 to 6.04794e-006
Heightened Def Con from 6.04794e-006 to 6.04794e-006
Heightened Def Con from 6.04794e-006 to 6.04894e-006
Heightened Def Con from 6.04894e-006 +to 6.05021e-006
Heightened Def Con from 6.05021e-006 to 6.05033e-006
Heightened Def Con from 6.05033e-006 to 6.05233e-006
Heightened Def Con from 6.05233e-006 +to 6.05235e-006
Heightened Def Con from 6.05235e-006 +to 6.05247e-006
Heightened Def Con from 6.05247e-006 ++to 6.05247e-006
Heightened Def Con from 6.05247e-006 to 6.0526e-006
Heightened Def Con from 6.0526e-006 to 6.05262e-006
Heightened Def Con from 6.05262e-006 to 6.05262e-006
Heightened Def Con from 6.05262e-006 to 6.05262e-006
Heightened Def Con from 6.05262e-006 to 6.05262e-006
Heightened Def Con from 6.05262e-006 to 6.05374e-006
Heightened Def Con from 6.05374e-006 to 6.05474e-006
Heightened Def Con from 6.05474e-006 ++to 6.05676e-006
Heightened Def Con from 6.05676e-006 to 6.05776e-006
Heightened Def Con from 6.05776e-006 to 6.05776e-006
Heightened Def Con from 6.05776e-006 to 6.05888e-006
Heightened Def Con from 6.05888e-006 to 6.0589e-006
Heightened Def Con from 6.0589e-006 to 6.0589e-006
Heightened Def Con from 6.0589e-006 to 6.05903e-006
Heightened Def Con from 6.05903e-006 +to 6.05903e-006
Heightened Def Con from 6.05903e-006 +to 6.05904e-006
Heightened Def Con from 6.05904e-006 to 6.05904e-006
Heightened Def Con from 6.05904e-006 to 6.05904e-006
Heightened Def Con from 6.05904e-006 +to 6.06006e-006
Heightened Def Con from 6.06006e-006 to 6.06006e-006
Heightened Def Con from 6.06006e-006 to 6.06008e-006
Heightened Def Con from 6.06008e-006 to 6.06009e-006
Heightened Def Con from 6.06009e-006 to 6.06009e-006
Heightened Def Con from 6.06009e-006 to 6.06009e-006
Heightened Def Con from 6.06009e-006 to 6.06009e-006
Heightened Def Con from 6.06009e-006 to 6.06009e-006
Heightened Def Con from 6.06009e-006 to 6.06009e-006
Heightened Def Con from 6.06009e-006 to 6.06309e-006
Heightened Def Con from 6.06309e-006 to 6.06309e-006
Heightened Def Con from 6.06309e-006 to 6.06323e-006
Heightened Def Con from 6.06323e-006 to 6.06323e-006
Heightened Def Con from 6.06323e-006 to 6.06323e-006
Heightened Def Con from 6.06323e-006 to 6.06323e-006
Heightened Def Con from 6.06323e-006 ++++to 6.06323e-006
Heightened Def Con from 6.06324e-006 ++to 6.06324e-006
Heightened Def Con from 6.06324e-006 +to 6.06349e-006
Heightened Def Con from 6.06349e-006 to 6.06349e-006
Heightened Def Con from 6.06349e-006 to 6.06461e-006
Heightened Def Con from 6.06461e-006 ++++to 6.06463e-006
Heightened Def Con from 6.06463e-006 ++to 6.06463e-006
Heightened Def Con from 6.06463e-006 +to 6.06465e-006
Heightened Def Con from 6.06465e-006 to 6.06479e-006
Heightened Def Con from 6.06479e-006 +to 6.06491e-006
Heightened Def Con from 6.06491e-006 to 6.06504e-006
Heightened Def Con from 6.06504e-006 to 6.06504e-006
Heightened Def Con from 6.06504e-006 to 6.06507e-006
Heightened Def Con from 6.06507e-006 to 6.0651e-006
Heightened Def Con from 6.0651e-006 to 6.06523e-006
Heightened Def Con from 6.06523e-006 to 6.06535e-006
Heightened Def Con from 6.06535e-006 +to 6.06548e-006
Heightened Def Con from 6.06548e-006 to 6.06551e-006
Heightened Def Con from 6.06551e-006 to 6.06563e-006
Heightened Def Con from 6.06563e-006 to 6.06565e-006
Heightened Def Con from 6.06565e-006 +to 6.06565e-006
Heightened Def Con from 6.06565e-006 to 6.06565e-006
Heightened Def Con from 6.06565e-006 +to 6.06565e-006
Heightened Def Con from 6.06565e-006 to 6.06565e-006
Heightened Def Con from 6.06565e-006 to 6.06567e-006
Heightened Def Con from 6.06567e-006 to 6.06567e-006
Heightened Def Con from 6.06567e-006 +to 6.06667e-006
Heightened Def Con from 6.06667e-006 ++to 6.06767e-006
Heightened Def Con from 6.06767e-006 to 6.0678e-006
Heightened Def Con from 6.0678e-006 +to 6.06783e-006
Heightened Def Con from 6.06783e-006 +to 6.06786e-006
Heightened Def Con from 6.06786e-006 +to 6.06799e-006
Heightened Def Con from 6.06799e-006 +++to 6.06838e-006
Heightened Def Con from 6.06838e-006 +++to 6.06851e-006
Heightened Def Con from 6.06863e-006 to 6.06863e-006
Heightened Def Con from 6.07116e-006 to 6.07116e-006
Heightened Def Con from 6.07306e-006 to 6.07306e-006
Heightened Def Con from 6.07314e-006 to 6.07314e-006
Heightened Def Con from 6.07792e-006 to 6.07792e-006
Heightened Def Con from 6.08003e-006 to 6.08103e-006
Heightened Def Con from 6.08233e-006 to 6.08233e-006
Heightened Def Con from 6.23334e-006 to 6.23434e-006
Heightened Def Con from 6.23551e-006 to 6.23551e-006
Heightened Def Con from 6.2371e-006 to 6.2381e-006
Heightened Def Con from 6.2381e-006 to 6.2381e-006
Heightened Def Con from 6.25362e-006 +++to 6.25462e-006
Heightened Def Con from 6.25462e-006 to 6.25462e-006
Heightened Def Con from 6.25462e-006 to 6.25476e-006
Heightened Def Con from 6.25476e-006 to 6.25576e-006
Heightened Def Con from 6.43179e-006 +to 6.43279e-006
Heightened Def Con from 6.43279e-006 to 6.43304e-006
Heightened Def Con from 6.57464e-006 to 6.57576e-006
Heightened Def Con from 6.57576e-006 to 6.57676e-006
Heightened Def Con from 6.57676e-006 to 6.57676e-006
Heightened Def Con from 6.57676e-006 to 6.57689e-006
Heightened Def Con from 6.57689e-006 to 6.57689e-006
Heightened Def Con from 6.57689e-006 to 6.57789e-006
Heightened Def Con from 6.778e-006 to 6.778e-006
Heightened Def Con from 6.778e-006 to 6.77802e-006
Heightened Def Con from 6.82285e-006 +to 6.82398e-006
Heightened Def Con from 6.82429e-006 to 6.82529e-006
Heightened Def Con from 6.85913e-006 to 6.85913e-006
Heightened Def Con from 6.85913e-006 to 6.85926e-006
Heightened Def Con from 6.8623e-006 to 6.8633e-006
Heightened Def Con from 6.86543e-006 to 6.86543e-006
Heightened Def Con from 6.86543e-006 to 6.86643e-006
Heightened Def Con from 6.92579e-006 +to 6.92579e-006
Heightened Def Con from 6.92579e-006 to 6.92779e-006
Heightened Def Con from 6.95986e-006 to 6.95999e-006
Heightened Def Con from 6.96499e-006 to 6.96599e-006
Heightened Def Con from 6.96599e-006 to 6.96699e-006
Heightened Def Con from 7.00055e-006 to 7.00055e-006
Heightened Def Con from 7.00056e-006 +to 7.00056e-006
Heightened Def Con from 7.00211e-006 to 7.00211e-006
Heightened Def Con from 7.00291e-006 +to 7.00303e-006
Heightened Def Con from 7.00387e-006 to 7.00387e-006
Heightened Def Con from 7.00435e-006 +to 7.00635e-006
Heightened Def Con from 7.00636e-006 +to 7.00636e-006
Heightened Def Con from 7.00636e-006 to 7.00748e-006
Heightened Def Con from 7.03007e-006 to 7.03019e-006
Heightened Def Con from 7.04051e-006 +to 7.04063e-006
Heightened Def Con from 7.04064e-006 to 7.04077e-006
Heightened Def Con from 7.04199e-006 to 7.04299e-006
Heightened Def Con from 7.04374e-006 to 7.04474e-006
Heightened Def Con from 7.04474e-006 to 7.04474e-006
Heightened Def Con from 7.04474e-006 +to 7.04574e-006
Heightened Def Con from 7.04648e-006 to 7.04648e-006
Heightened Def Con from 7.04665e-006 to 7.04666e-006
Heightened Def Con from 7.04666e-006 to 7.04679e-006
Heightened Def Con from 7.04679e-006 to 7.04704e-006
Heightened Def Con from 7.04744e-006 to 7.04844e-006
Heightened Def Con from 7.04844e-006 +to 7.04857e-006
Heightened Def Con from 7.06261e-006 to 7.06273e-006
Heightened Def Con from 7.06278e-006 +to 7.06278e-006
Heightened Def Con from 7.06278e-006 to 7.06278e-006
Heightened Def Con from 7.06278e-006 to 7.0638e-006
Heightened Def Con from 7.06641e-006 to 7.06741e-006
Heightened Def Con from 7.07147e-006 to 7.07247e-006
Heightened Def Con from 7.07247e-006 +++to 7.07347e-006
Heightened Def Con from 7.07347e-006 to 7.07347e-006
Heightened Def Con from 7.07347e-006 to 7.07359e-006
Heightened Def Con from 7.29155e-006 to 7.29255e-006
Heightened Def Con from 7.83222e-006 to 7.83322e-006
Heightened Def Con from 7.93138e-006 +to 7.9315e-006
Heightened Def Con from 8.00005e-006 to 8.00007e-006
Heightened Def Con from 8.06238e-006 to 8.0635e-006
Heightened Def Con from 8.08095e-006 +to 8.08096e-006
Heightened Def Con from 8.08658e-006 to 8.08658e-006
Heightened Def Con from 8.83177e-006 to 8.8319e-006
Heightened Def Con from 8.83231e-006 to 8.83331e-006
Heightened Def Con from 8.84391e-006 to 8.84391e-006
Heightened Def Con from 8.84635e-006 to 8.84637e-006
Heightened Def Con from 8.86645e-006 to 8.86645e-006
Heightened Def Con from 8.90788e-006 to 8.90788e-006
Heightened Def Con from 9.03006e-006 to 9.03006e-006
Heightened Def Con from 9.03269e-006 to 9.03269e-006
Heightened Def Con from 9.03275e-006 to 9.03375e-006
Heightened Def Con from 9.03422e-006 to 9.03422e-006
Heightened Def Con from 9.03476e-006 to 9.03676e-006
Heightened Def Con from 9.03676e-006 to 9.03776e-006
Heightened Def Con from 9.04513e-006 to 9.04513e-006
Heightened Def Con from 9.62359e-006 to 9.62459e-006
Heightened Def Con from 9.63047e-006 to 9.63147e-006
Heightened Def Con from 9.69716e-006 to 9.69716e-006
Heightened Def Con from 9.69731e-006 to 9.69931e-006
Heightened Def Con from 9.82639e-006 to 9.82639e-006
Heightened Def Con from 9.82679e-006 to 9.82679e-006
Heightened Def Con from 9.83103e-006 to 9.83117e-006
Heightened Def Con from 9.90321e-006 to 9.90321e-006
Heightened Def Con from 9.95151e-006 to 9.95164e-006
Heightened Def Con from 1e-005 to 1e-005
Heightened Def Con from 1.00107e-005 to 1.00117e-005
Heightened Def Con from 1.00321e-005 to 1.00341e-005
Heightened Def Con from 1.00341e-005 to 1.00341e-005
Heightened Def Con from 1.00342e-005 to 1.00342e-005
Heightened Def Con from 1.00342e-005 to 1.00342e-005
Heightened Def Con from 1.00344e-005 to 1.00344e-005
Heightened Def Con from 1.00406e-005 to 1.00406e-005
Heightened Def Con from 1.00444e-005 to 1.00444e-005
Heightened Def Con from 1.00683e-005 to 1.00683e-005
Heightened Def Con from 1.00797e-005 to 1.00799e-005
Heightened Def Con from 1.008e-005 to 1.00801e-005
Heightened Def Con from 1.04954e-005 to 1.04954e-005
Heightened Def Con from 1.05816e-005 to 1.05816e-005
Heightened Def Con from 1.08386e-005 to 1.08396e-005
Heightened Def Con from 1.08629e-005 to 1.08629e-005
Heightened Def Con from 1.09553e-005 to 1.09553e-005
Heightened Def Con from 1.0959e-005 to 1.0961e-005
Heightened Def Con from 1.0961e-005 ++to 1.0962e-005
Heightened Def Con from 1.10432e-005 to 1.10432e-005
Heightened Def Con from 1.10435e-005 to 1.10435e-005
Heightened Def Con from 1.16082e-005 to 1.16082e-005
Heightened Def Con from 1.16098e-005 to 1.16108e-005
Heightened Def Con from 1.18063e-005 to 1.18063e-005
Heightened Def Con from 1.18373e-005 to 1.18383e-005
Heightened Def Con from 1.18458e-005 to 1.18458e-005
Heightened Def Con from 1.18458e-005 to 1.18468e-005
Heightened Def Con from 1.18766e-005 to 1.18766e-005
Heightened Def Con from 1.19571e-005 to 1.19581e-005
Heightened Def Con from 1.2e-005 to 1.2001e-005
Heightened Def Con from 1.20346e-005 to 1.20366e-005
Heightened Def Con from 1.20409e-005 to 1.20409e-005
Heightened Def Con from 1.20427e-005 to 1.20428e-005
Heightened Def Con from 1.23216e-005 to 1.23226e-005
Heightened Def Con from 1.25637e-005 to 1.25637e-005
Heightened Def Con from 1.26258e-005 to 1.26258e-005
Heightened Def Con from 1.26533e-005 to 1.26533e-005
Heightened Def Con from 1.26533e-005 +to 1.26533e-005
Heightened Def Con from 1.27026e-005 +++to 1.27026e-005
Heightened Def Con from 1.27115e-005 to 1.27117e-005
Heightened Def Con from 1.27117e-005 to 1.27117e-005
Heightened Def Con from 1.30385e-005 to 1.30385e-005
Heightened Def Con from 1.30391e-005 to 1.30391e-005
Heightened Def Con from 1.30396e-005 to 1.30396e-005
Heightened Def Con from 1.30448e-005 +to 1.30448e-005
Heightened Def Con from 1.30605e-005 to 1.30615e-005
Heightened Def Con from 1.30653e-005 to 1.30653e-005
Heightened Def Con from 1.35375e-005 to 1.35375e-005
Heightened Def Con from 1.35953e-005 to 1.35953e-005
Heightened Def Con from 1.37154e-005 to 1.37154e-005
Heightened Def Con from 1.38358e-005 to 1.38358e-005
Heightened Def Con from 1.38421e-005 to 1.38421e-005
Heightened Def Con from 1.38446e-005 to 1.38446e-005
Heightened Def Con from 1.38446e-005 to 1.38448e-005
Heightened Def Con from 1.38479e-005 to 1.38479e-005
Heightened Def Con from 1.39202e-005 to 1.39212e-005
Heightened Def Con from 1.39552e-005 to 1.39553e-005
Heightened Def Con from 1.39554e-005 to 1.39554e-005
Heightened Def Con from 1.39613e-005 +to 1.39613e-005
Heightened Def Con from 1.39613e-005 to 1.39623e-005
Heightened Def Con from 1.3963e-005 to 1.3963e-005
Heightened Def Con from 1.40336e-005 to 1.40336e-005
Heightened Def Con from 1.40388e-005 to 1.40388e-005
Heightened Def Con from 1.40388e-005 to 1.40388e-005
Heightened Def Con from 1.40389e-005 to 1.40389e-005
Heightened Def Con from 1.40417e-005 +to 1.40417e-005
Heightened Def Con from 1.40609e-005 to 1.4061e-005
Heightened Def Con from 1.46288e-005 to 1.46288e-005
Heightened Def Con from 1.48372e-005 to 1.48372e-005
Heightened Def Con from 1.48397e-005 to 1.48397e-005
Heightened Def Con from 1.49648e-005 to 1.49648e-005
Heightened Def Con from 1.49648e-005 to 1.49649e-005
Heightened Def Con from 1.49668e-005 to 1.49678e-005
Heightened Def Con from 1.49761e-005 to 1.49781e-005
Heightened Def Con from 1.50358e-005 to 1.50358e-005
Heightened Def Con from 1.50375e-005 to 1.50375e-005
Heightened Def Con from 1.50375e-005 to 1.50375e-005
Heightened Def Con from 1.50375e-005 to 1.50375e-005
Heightened Def Con from 1.50375e-005 to 1.50375e-005
Heightened Def Con from 1.50378e-005 to 1.50378e-005
Heightened Def Con from 1.50385e-005 ++to 1.50385e-005
Heightened Def Con from 1.50418e-005 to 1.50418e-005
Heightened Def Con from 1.50435e-005 to 1.50435e-005
Heightened Def Con from 1.50435e-005 to 1.50435e-005
Heightened Def Con from 1.50436e-005 to 1.50437e-005
Heightened Def Con from 1.50449e-005 to 1.50451e-005
Heightened Def Con from 1.50672e-005 to 1.50672e-005
Heightened Def Con from 1.52505e-005 to 1.52505e-005
Heightened Def Con from 1.53745e-005 to 1.53745e-005
Heightened Def Con from 1.54528e-005 to 1.54538e-005
Heightened Def Con from 1.56821e-005 to 1.56821e-005
Heightened Def Con from 1.58948e-005 to 1.58948e-005
Heightened Def Con from 1.59612e-005 to 1.59622e-005
Heightened Def Con from 1.59662e-005 to 1.59662e-005
Heightened Def Con from 1.59664e-005 to 1.59664e-005
Heightened Def Con from 1.60005e-005 to 1.60015e-005
Heightened Def Con from 1.60019e-005 to 1.60019e-005
Heightened Def Con from 1.60334e-005 to 1.60335e-005
Heightened Def Con from 1.60357e-005 to 1.60359e-005
Heightened Def Con from 1.60391e-005 to 1.60391e-005
Heightened Def Con from 1.60391e-005 to 1.60391e-005
Heightened Def Con from 1.60425e-005 to 1.60425e-005
Heightened Def Con from 1.60425e-005 to 1.60425e-005
Heightened Def Con from 1.60466e-005 to 1.60466e-005
Heightened Def Con from 1.60493e-005 to 1.60503e-005
Heightened Def Con from 1.60503e-005 to 1.60503e-005
Heightened Def Con from 1.60503e-005 to 1.60503e-005
Heightened Def Con from 1.60972e-005 to 1.60972e-005
Heightened Def Con from 1.64864e-005 to 1.64865e-005
Heightened Def Con from 1.67913e-005 to 1.67913e-005
Heightened Def Con from 1.68666e-005 +to 1.68676e-005
Heightened Def Con from 1.68917e-005 to 1.68927e-005
Heightened Def Con from 1.6927e-005 to 1.6927e-005
Heightened Def Con from 1.6927e-005 to 1.6927e-005
Heightened Def Con from 1.69534e-005 to 1.69554e-005
Heightened Def Con from 1.69563e-005 to 1.69563e-005
Heightened Def Con from 1.69637e-005 to 1.69637e-005
Heightened Def Con from 1.70362e-005 to 1.70362e-005
Heightened Def Con from 1.70362e-005 to 1.70362e-005
Heightened Def Con from 1.70363e-005 to 1.70363e-005
Heightened Def Con from 1.70363e-005 to 1.70363e-005
Heightened Def Con from 1.70374e-005 to 1.70374e-005
Heightened Def Con from 1.70392e-005 to 1.70402e-005
Heightened Def Con from 1.70604e-005 to 1.70604e-005
Heightened Def Con from 1.77393e-005 to 1.77393e-005
Heightened Def Con from 1.78343e-005 +to 1.78343e-005
Heightened Def Con from 1.78343e-005 to 1.78354e-005
Heightened Def Con from 1.78917e-005 to 1.78917e-005
Heightened Def Con from 1.79072e-005 to 1.79072e-005
Heightened Def Con from 1.79102e-005 to 1.79102e-005
Heightened Def Con from 1.79114e-005 to 1.79114e-005
Heightened Def Con from 1.80039e-005 to 1.80039e-005
Heightened Def Con from 1.80045e-005 to 1.80056e-005
Heightened Def Con from 1.8007e-005 to 1.80071e-005
Heightened Def Con from 1.80078e-005 +to 1.8008e-005
Heightened Def Con from 1.80301e-005 to 1.80302e-005
Heightened Def Con from 1.80321e-005 to 1.80321e-005
Heightened Def Con from 1.80332e-005 to 1.80332e-005
Heightened Def Con from 1.80348e-005 to 1.80348e-005
Heightened Def Con from 1.80364e-005 to 1.80364e-005
Heightened Def Con from 1.80405e-005 to 1.80406e-005
Heightened Def Con from 1.80412e-005 to 1.80412e-005
Heightened Def Con from 1.80413e-005 to 1.80423e-005
Heightened Def Con from 1.80426e-005 to 1.80426e-005
Heightened Def Con from 1.80432e-005 to 1.80442e-005
Heightened Def Con from 1.80625e-005 to 1.80625e-005
Heightened Def Con from 1.80647e-005 to 1.80647e-005
Heightened Def Con from 1.85909e-005 to 1.85909e-005
Heightened Def Con from 1.86063e-005 to 1.86073e-005
Heightened Def Con from 1.86762e-005 to 1.86762e-005
Heightened Def Con from 1.86762e-005 to 1.86762e-005
Heightened Def Con from 1.87838e-005 +to 1.87848e-005
Heightened Def Con from 1.87848e-005 to 1.87858e-005
Heightened Def Con from 1.88159e-005 to 1.88159e-005
Heightened Def Con from 1.8816e-005 to 1.8816e-005
Heightened Def Con from 1.88219e-005 to 1.88219e-005
Heightened Def Con from 1.88219e-005 to 1.88219e-005
Heightened Def Con from 1.88219e-005 to 1.88219e-005
Heightened Def Con from 1.88349e-005 to 1.88349e-005
Heightened Def Con from 1.88349e-005 to 1.88349e-005
Heightened Def Con from 1.884e-005 to 1.884e-005
Heightened Def Con from 1.884e-005 to 1.88401e-005
Heightened Def Con from 1.90035e-005 to 1.90035e-005
Heightened Def Con from 1.90047e-005 to 1.90047e-005
Heightened Def Con from 1.90321e-005 to 1.90332e-005
Heightened Def Con from 1.90403e-005 to 1.90403e-005
Heightened Def Con from 1.90404e-005 to 1.90414e-005
Heightened Def Con from 1.90426e-005 to 1.90426e-005
Heightened Def Con from 1.90461e-005 to 1.90461e-005
Heightened Def Con from 1.9159e-005 to 1.9159e-005
Heightened Def Con from 1.92687e-005 to 1.92687e-005
Heightened Def Con from 1.96856e-005 to 1.96856e-005
Heightened Def Con from 1.97092e-005 to 1.97092e-005
Heightened Def Con from 1.98533e-005 to 1.98533e-005
Heightened Def Con from 1.98533e-005 to 1.98543e-005
Heightened Def Con from 2.00073e-005 to 2.00073e-005
Heightened Def Con from 2.00335e-005 +to 2.00345e-005
Heightened Def Con from 2.00376e-005 to 2.00386e-005
Heightened Def Con from 2.00386e-005 to 2.00396e-005
Heightened Def Con from 2.00416e-005 to 2.00426e-005
Heightened Def Con from 2.00601e-005 to 2.00601e-005
Heightened Def Con from 2.00744e-005 to 2.00744e-005
Heightened Def Con from 2.03565e-005 ++to 2.03575e-005
Heightened Def Con from 2.03575e-005 to 2.03575e-005
Heightened Def Con from 2.03575e-005 to 2.03575e-005
Heightened Def Con from 2.03576e-005 to 2.03576e-005
Heightened Def Con from 2.0379e-005 to 2.0379e-005
Heightened Def Con from 2.03791e-005 to 2.03791e-005
Heightened Def Con from 2.03791e-005 to 2.03793e-005
Heightened Def Con from 2.03793e-005 to 2.03803e-005
Heightened Def Con from 2.03803e-005 to 2.03803e-005
Heightened Def Con from 2.03803e-005 to 2.03803e-005
Heightened Def Con from 2.05423e-005 to 2.05424e-005
Heightened Def Con from 2.05424e-005 to 2.05424e-005
Heightened Def Con from 2.05424e-005 to 2.05424e-005
Heightened Def Con from 2.06296e-005 ++to 2.06296e-005
Heightened Def Con from 2.06296e-005 +to 2.06297e-005
Heightened Def Con from 2.06362e-005 to 2.06362e-005
Heightened Def Con from 2.06362e-005 to 2.06382e-005
Heightened Def Con from 2.06398e-005 to 2.06399e-005
Heightened Def Con from 2.06493e-005 ++to 2.06503e-005
Heightened Def Con from 2.06591e-005 ++to 2.06591e-005
Heightened Def Con from 2.06591e-005 to 2.06591e-005
Heightened Def Con from 2.06823e-005 to 2.06823e-005
Heightened Def Con from 2.06823e-005 +to 2.06823e-005
Heightened Def Con from 2.06823e-005 to 2.06823e-005
Heightened Def Con from 2.06823e-005 +++to 2.06843e-005
Heightened Def Con from 2.06845e-005 to 2.06847e-005
Heightened Def Con from 2.06883e-005 to 2.06883e-005
Heightened Def Con from 2.06891e-005 to 2.06891e-005
Heightened Def Con from 2.06891e-005 to 2.06891e-005
Heightened Def Con from 2.0711e-005 +to 2.0712e-005
Heightened Def Con from 2.08068e-005 +to 2.08068e-005
Heightened Def Con from 2.0831e-005 to 2.0832e-005
Heightened Def Con from 2.0832e-005 +to 2.08321e-005
Heightened Def Con from 2.08875e-005 to 2.08875e-005
Heightened Def Con from 2.08875e-005 to 2.08875e-005
Heightened Def Con from 2.09365e-005 to 2.09365e-005
Heightened Def Con from 2.09365e-005 to 2.09365e-005
Heightened Def Con from 2.09575e-005 to 2.09575e-005
Heightened Def Con from 2.1e-005 to 2.1001e-005
Heightened Def Con from 2.1002e-005 to 2.1003e-005
Heightened Def Con from 2.10046e-005 to 2.10046e-005
Heightened Def Con from 2.10046e-005 to 2.10046e-005
Heightened Def Con from 2.103e-005 to 2.103e-005
Heightened Def Con from 2.10325e-005 +to 2.10325e-005
Heightened Def Con from 2.10334e-005 to 2.10334e-005
Heightened Def Con from 2.10334e-005 to 2.10334e-005
Heightened Def Con from 2.10334e-005 to 2.10334e-005
Heightened Def Con from 2.10339e-005 to 2.10339e-005
Heightened Def Con from 2.10349e-005 to 2.1036e-005
Heightened Def Con from 2.10364e-005 to 2.10364e-005
Heightened Def Con from 2.10364e-005 to 2.10365e-005
Heightened Def Con from 2.10365e-005 to 2.10365e-005
Heightened Def Con from 2.10406e-005 to 2.10416e-005
Heightened Def Con from 2.10417e-005 to 2.10417e-005
Heightened Def Con from 2.10417e-005 +to 2.10417e-005
Heightened Def Con from 2.10417e-005 to 2.10417e-005
Heightened Def Con from 2.10446e-005 to 2.10446e-005
Heightened Def Con from 2.10446e-005 to 2.10447e-005
Heightened Def Con from 2.13348e-005 to 2.13348e-005
Heightened Def Con from 2.16453e-005 to 2.16463e-005
Heightened Def Con from 2.17022e-005 to 2.17023e-005
Heightened Def Con from 2.1777e-005 to 2.1777e-005
Heightened Def Con from 2.2001e-005 to 2.2001e-005
Heightened Def Con from 2.2001e-005 to 2.20011e-005
Heightened Def Con from 2.20011e-005 to 2.20012e-005
Heightened Def Con from 2.20052e-005 to 2.20062e-005
Heightened Def Con from 2.20062e-005 to 2.20062e-005
Heightened Def Con from 2.20327e-005 to 2.20327e-005
Heightened Def Con from 2.20363e-005 to 2.20363e-005
Heightened Def Con from 2.20364e-005 to 2.20376e-005
Heightened Def Con from 2.20379e-005 +to 2.20379e-005
Heightened Def Con from 2.20384e-005 to 2.20384e-005
Heightened Def Con from 2.20409e-005 to 2.20409e-005
Heightened Def Con from 2.20409e-005 to 2.2041e-005
Heightened Def Con from 2.2041e-005 to 2.2041e-005
Heightened Def Con from 2.20414e-005 to 2.20415e-005
Heightened Def Con from 2.20415e-005 to 2.20416e-005
Heightened Def Con from 2.20427e-005 to 2.20427e-005
Heightened Def Con from 2.20427e-005 +to 2.20428e-005
Heightened Def Con from 2.20432e-005 to 2.20432e-005
Heightened Def Con from 2.20432e-005 to 2.20433e-005
Heightened Def Con from 2.20442e-005 to 2.20442e-005
Heightened Def Con from 2.20455e-005 to 2.20465e-005
Heightened Def Con from 2.20817e-005 to 2.20818e-005
Heightened Def Con from 2.22341e-005 to 2.22351e-005
Heightened Def Con from 2.24442e-005 to 2.24452e-005
Heightened Def Con from 2.24876e-005 to 2.24876e-005
Heightened Def Con from 2.24959e-005 to 2.24969e-005
Heightened Def Con from 2.24969e-005 to 2.24969e-005
Heightened Def Con from 2.2731e-005 +to 2.2731e-005
Heightened Def Con from 2.2731e-005 to 2.2731e-005
Heightened Def Con from 2.2731e-005 to 2.2731e-005
Heightened Def Con from 2.2731e-005 +to 2.2731e-005
Heightened Def Con from 2.27999e-005 +to 2.27999e-005
Heightened Def Con from 2.28288e-005 to 2.28288e-005
Heightened Def Con from 2.28288e-005 to 2.28288e-005
Heightened Def Con from 2.28288e-005 to 2.28289e-005
Heightened Def Con from 2.28927e-005 to 2.28928e-005
Heightened Def Con from 2.29067e-005 to 2.29067e-005
Heightened Def Con from 2.29067e-005 to 2.29067e-005
Heightened Def Con from 2.29067e-005 ++to 2.29068e-005
Heightened Def Con from 2.2907e-005 +to 2.29071e-005
Heightened Def Con from 2.29071e-005 to 2.29071e-005
Heightened Def Con from 2.29124e-005 +to 2.29124e-005
Heightened Def Con from 2.29388e-005 to 2.2939e-005
Heightened Def Con from 2.2939e-005 to 2.2939e-005
Heightened Def Con from 2.2939e-005 ++to 2.2939e-005
Heightened Def Con from 2.2939e-005 +to 2.2939e-005
Heightened Def Con from 2.29474e-005 to 2.29474e-005
Heightened Def Con from 2.29474e-005 ++to 2.29474e-005
Heightened Def Con from 2.29639e-005 to 2.29639e-005
Heightened Def Con from 2.2964e-005 to 2.2964e-005
Heightened Def Con from 2.2964e-005 to 2.2965e-005
Heightened Def Con from 2.2965e-005 to 2.2965e-005
Heightened Def Con from 2.29659e-005 +to 2.29679e-005
Heightened Def Con from 2.29913e-005 to 2.29913e-005
Heightened Def Con from 2.30002e-005 to 2.30004e-005
Heightened Def Con from 2.30031e-005 to 2.30042e-005
Heightened Def Con from 2.30043e-005 to 2.30043e-005
Heightened Def Con from 2.30043e-005 to 2.30043e-005
Heightened Def Con from 2.30044e-005 +to 2.30045e-005
Heightened Def Con from 2.3005e-005 to 2.3005e-005
Heightened Def Con from 2.30065e-005 to 2.30075e-005
Heightened Def Con from 2.30081e-005 to 2.30091e-005
Heightened Def Con from 2.30149e-005 to 2.30149e-005
Heightened Def Con from 2.30149e-005 ++++to 2.30149e-005
Heightened Def Con from 2.30149e-005 ++to 2.30149e-005
Heightened Def Con from 2.30149e-005 to 2.30149e-005
Heightened Def Con from 2.30149e-005 to 2.30149e-005
Heightened Def Con from 2.3016e-005 to 2.3017e-005
Heightened Def Con from 2.30186e-005 to 2.30187e-005
Heightened Def Con from 2.30187e-005 to 2.30187e-005
Heightened Def Con from 2.30187e-005 to 2.30187e-005
Heightened Def Con from 2.30187e-005 to 2.30187e-005
Heightened Def Con from 2.30187e-005 to 2.30187e-005
Heightened Def Con from 2.30383e-005 to 2.30393e-005
Heightened Def Con from 2.30403e-005 to 2.30403e-005
Heightened Def Con from 2.30884e-005 to 2.30894e-005
Heightened Def Con from 2.36533e-005 +to 2.36543e-005
Heightened Def Con from 2.36637e-005 +to 2.36647e-005
Heightened Def Con from 2.36647e-005 to 2.36647e-005
Heightened Def Con from 2.37225e-005 to 2.37227e-005
Heightened Def Con from 2.37398e-005 to 2.37399e-005
Heightened Def Con from 2.37724e-005 to 2.37725e-005
Heightened Def Con from 2.38106e-005 to 2.38108e-005
Heightened Def Con from 2.38255e-005 to 2.38265e-005
Heightened Def Con from 2.38788e-005 to 2.38788e-005
Heightened Def Con from 2.4e-005 +to 2.4e-005
Heightened Def Con from 2.40009e-005 to 2.40009e-005
Heightened Def Con from 2.40009e-005 to 2.40011e-005
Heightened Def Con from 2.40025e-005 to 2.40025e-005
Heightened Def Con from 2.40033e-005 to 2.40044e-005
Heightened Def Con from 2.40069e-005 to 2.4008e-005
Heightened Def Con from 2.403e-005 to 2.403e-005
Heightened Def Con from 2.40327e-005 to 2.40327e-005
Heightened Def Con from 2.40335e-005 to 2.40335e-005
Heightened Def Con from 2.40335e-005 to 2.40335e-005
Heightened Def Con from 2.40378e-005 to 2.40378e-005
Heightened Def Con from 2.40381e-005 to 2.40381e-005
Heightened Def Con from 2.40385e-005 to 2.40385e-005
Heightened Def Con from 2.40392e-005 to 2.40392e-005
Heightened Def Con from 2.40396e-005 to 2.40396e-005
Heightened Def Con from 2.40396e-005 to 2.40416e-005
Heightened Def Con from 2.40417e-005 to 2.40417e-005
Heightened Def Con from 2.40417e-005 +to 2.40417e-005
Heightened Def Con from 2.40417e-005 to 2.40417e-005
Heightened Def Con from 2.40422e-005 to 2.40442e-005
Heightened Def Con from 2.43244e-005 ++to 2.43254e-005
Heightened Def Con from 2.43254e-005 to 2.43264e-005
Heightened Def Con from 2.43327e-005 to 2.43327e-005
Heightened Def Con from 2.43327e-005 to 2.43327e-005
Heightened Def Con from 2.45968e-005 to 2.45968e-005
Heightened Def Con from 2.46547e-005 +to 2.46557e-005
Heightened Def Con from 2.46557e-005 to 2.46557e-005
Heightened Def Con from 2.46557e-005 to 2.46557e-005
Heightened Def Con from 2.46557e-005 to 2.46558e-005
Heightened Def Con from 2.47622e-005 to 2.47632e-005
Heightened Def Con from 2.47669e-005 to 2.47669e-005
Heightened Def Con from 2.4796e-005 to 2.4797e-005
Heightened Def Con from 2.48002e-005 +to 2.48002e-005
Heightened Def Con from 2.48002e-005 +to 2.48012e-005
Heightened Def Con from 2.48025e-005 +to 2.48025e-005
Heightened Def Con from 2.48025e-005 +to 2.48025e-005
Heightened Def Con from 2.48025e-005 to 2.48025e-005
Heightened Def Con from 2.48025e-005 ++to 2.48028e-005
Heightened Def Con from 2.48542e-005 to 2.48552e-005
Heightened Def Con from 2.48881e-005 to 2.48882e-005
Heightened Def Con from 2.48882e-005 to 2.48883e-005
Heightened Def Con from 2.48919e-005 to 2.48919e-005
Heightened Def Con from 2.48919e-005 +to 2.48919e-005
Heightened Def Con from 2.4938e-005 to 2.4938e-005
Heightened Def Con from 2.4938e-005 to 2.4938e-005
Heightened Def Con from 2.4938e-005 to 2.4938e-005
Heightened Def Con from 2.49624e-005 +to 2.49634e-005
Heightened Def Con from 2.49649e-005 to 2.4965e-005
Heightened Def Con from 2.50005e-005 to 2.50005e-005
Heightened Def Con from 2.50005e-005 +to 2.50005e-005
Heightened Def Con from 2.50306e-005 +to 2.50307e-005
Heightened Def Con from 2.50349e-005 to 2.50349e-005
Heightened Def Con from 2.50368e-005 to 2.50368e-005
Heightened Def Con from 2.50425e-005 to 2.50425e-005
Heightened Def Con from 2.50425e-005 to 2.50435e-005
Heightened Def Con from 2.53157e-005 to 2.53157e-005
Heightened Def Con from 2.53603e-005 +to 2.53613e-005
Heightened Def Con from 2.53639e-005 to 2.53639e-005
Heightened Def Con from 2.54451e-005 to 2.54451e-005
Heightened Def Con from 2.57127e-005 to 2.57127e-005
Heightened Def Con from 2.57235e-005 to 2.57245e-005
Heightened Def Con from 2.58462e-005 to 2.58462e-005
Heightened Def Con from 2.58474e-005 to 2.58475e-005
Heightened Def Con from 2.5852e-005 to 2.5852e-005
Heightened Def Con from 2.59022e-005 ++to 2.59022e-005
Heightened Def Con from 2.59022e-005 to 2.59022e-005
Heightened Def Con from 2.59408e-005 to 2.59409e-005
Heightened Def Con from 2.59568e-005 to 2.59568e-005
Heightened Def Con from 2.59568e-005 to 2.59568e-005
Heightened Def Con from 2.59568e-005 to 2.59568e-005
Heightened Def Con from 2.59575e-005 to 2.59575e-005
Heightened Def Con from 2.59575e-005 to 2.59575e-005
Heightened Def Con from 2.59678e-005 to 2.59679e-005
Heightened Def Con from 2.59679e-005 to 2.59689e-005
Heightened Def Con from 2.59695e-005 to 2.59695e-005
Heightened Def Con from 2.59695e-005 to 2.59695e-005
Heightened Def Con from 2.6e-005 to 2.6e-005
Heightened Def Con from 2.60006e-005 to 2.60008e-005
Heightened Def Con from 2.60008e-005 to 2.60008e-005
Heightened Def Con from 2.60017e-005 +to 2.60017e-005
Heightened Def Con from 2.60022e-005 to 2.60022e-005
Heightened Def Con from 2.60022e-005 to 2.60042e-005
Heightened Def Con from 2.60051e-005 +to 2.60061e-005
Heightened Def Con from 2.60061e-005 to 2.60061e-005
Heightened Def Con from 2.60061e-005 to 2.60071e-005
Heightened Def Con from 2.60071e-005 to 2.60071e-005
Heightened Def Con from 2.60071e-005 to 2.60071e-005
Heightened Def Con from 2.60071e-005 to 2.60071e-005
Heightened Def Con from 2.60085e-005 +to 2.60095e-005
Heightened Def Con from 2.60101e-005 +to 2.60101e-005
Heightened Def Con from 2.60318e-005 +to 2.60318e-005
Heightened Def Con from 2.60318e-005 to 2.60328e-005
Heightened Def Con from 2.60328e-005 to 2.60329e-005
Heightened Def Con from 2.60333e-005 to 2.60353e-005
Heightened Def Con from 2.60353e-005 to 2.60353e-005
Heightened Def Con from 2.60357e-005 to 2.60367e-005
Heightened Def Con from 2.60394e-005 to 2.60405e-005
Heightened Def Con from 2.60409e-005 to 2.6041e-005
Heightened Def Con from 2.6041e-005 to 2.6041e-005
Heightened Def Con from 2.60661e-005 to 2.60662e-005
Heightened Def Con from 2.63038e-005 ++to 2.63049e-005
Heightened Def Con from 2.63986e-005 to 2.63987e-005
Heightened Def Con from 2.63987e-005 to 2.63987e-005
Heightened Def Con from 2.63991e-005 to 2.63991e-005
Heightened Def Con from 2.63991e-005 to 2.63991e-005
Heightened Def Con from 2.65258e-005 +to 2.65258e-005
Heightened Def Con from 2.65261e-005 +to 2.65271e-005
Heightened Def Con from 2.65271e-005 to 2.65291e-005
Heightened Def Con from 2.6531e-005 to 2.6531e-005
Heightened Def Con from 2.65849e-005 to 2.65859e-005
Heightened Def Con from 2.65859e-005 to 2.65859e-005
Heightened Def Con from 2.65859e-005 to 2.65879e-005
Heightened Def Con from 2.65879e-005 to 2.65879e-005
Heightened Def Con from 2.66268e-005 to 2.66278e-005
Heightened Def Con from 2.6775e-005 +to 2.6776e-005
Heightened Def Con from 2.68071e-005 to 2.68071e-005
Heightened Def Con from 2.68271e-005 +to 2.68273e-005
Heightened Def Con from 2.68273e-005 +++to 2.68273e-005
Heightened Def Con from 2.68273e-005 to 2.68273e-005
Heightened Def Con from 2.68273e-005 to 2.68273e-005
Heightened Def Con from 2.69196e-005 to 2.69206e-005
Heightened Def Con from 2.69206e-005 to 2.69206e-005
Heightened Def Con from 2.6932e-005 to 2.6933e-005
Heightened Def Con from 2.69487e-005 to 2.69487e-005
Heightened Def Con from 2.69487e-005 to 2.69487e-005
Heightened Def Con from 2.69677e-005 to 2.69677e-005
Heightened Def Con from 2.69695e-005 to 2.69695e-005
Heightened Def Con from 2.70024e-005 to 2.70044e-005
Heightened Def Con from 2.70044e-005 to 2.70044e-005
Heightened Def Con from 2.70047e-005 to 2.70049e-005
Heightened Def Con from 2.70049e-005 to 2.70059e-005
Heightened Def Con from 2.70349e-005 to 2.70359e-005
Heightened Def Con from 2.7036e-005 to 2.7036e-005
Heightened Def Con from 2.70373e-005 to 2.70373e-005
Heightened Def Con from 2.70373e-005 ++to 2.70375e-005
Heightened Def Con from 2.70378e-005 to 2.70378e-005
Heightened Def Con from 2.70378e-005 to 2.70388e-005
Heightened Def Con from 2.70388e-005 to 2.70388e-005
Heightened Def Con from 2.70403e-005 to 2.70403e-005
Heightened Def Con from 2.70409e-005 to 2.70409e-005
Heightened Def Con from 2.70409e-005 to 2.70409e-005
Heightened Def Con from 2.70409e-005 +to 2.7042e-005
Heightened Def Con from 2.70421e-005 to 2.70421e-005
Heightened Def Con from 2.70421e-005 to 2.70421e-005
Heightened Def Con from 2.70421e-005 to 2.70421e-005
Heightened Def Con from 2.70425e-005 +to 2.70425e-005
Heightened Def Con from 2.70429e-005 to 2.70431e-005
Heightened Def Con from 2.70441e-005 to 2.70451e-005
Heightened Def Con from 2.70462e-005 to 2.70472e-005
Heightened Def Con from 2.70905e-005 to 2.70905e-005
Heightened Def Con from 2.74284e-005 to 2.74284e-005
Heightened Def Con from 2.76404e-005 to 2.76404e-005
Heightened Def Con from 2.76809e-005 to 2.76811e-005
Heightened Def Con from 2.77707e-005 to 2.77708e-005
Heightened Def Con from 2.7803e-005 to 2.7804e-005
Heightened Def Con from 2.79265e-005 +to 2.79275e-005
Heightened Def Con from 2.79276e-005 to 2.79277e-005
Heightened Def Con from 2.79291e-005 to 2.79291e-005
Heightened Def Con from 2.79291e-005 to 2.79291e-005
Heightened Def Con from 2.7934e-005 ++to 2.7934e-005
Heightened Def Con from 2.7934e-005 +to 2.7934e-005
Heightened Def Con from 2.7934e-005 to 2.7934e-005
Heightened Def Con from 2.7934e-005 to 2.7934e-005
Heightened Def Con from 2.80309e-005 to 2.80309e-005
Heightened Def Con from 2.80322e-005 to 2.80322e-005
Heightened Def Con from 2.80326e-005 to 2.80326e-005
Heightened Def Con from 2.80344e-005 to 2.80344e-005
Heightened Def Con from 2.80364e-005 +to 2.80364e-005
Heightened Def Con from 2.809e-005 to 2.809e-005
Heightened Def Con from 2.85081e-005 to 2.85082e-005
Heightened Def Con from 2.85104e-005 to 2.85104e-005
Heightened Def Con from 2.85104e-005 to 2.85104e-005
Heightened Def Con from 2.86318e-005 to 2.86318e-005
Heightened Def Con from 2.86318e-005 to 2.86318e-005
Heightened Def Con from 2.86329e-005 to 2.86339e-005
Heightened Def Con from 2.86339e-005 to 2.86339e-005
Heightened Def Con from 2.86339e-005 +to 2.86339e-005
Heightened Def Con from 2.86339e-005 +to 2.86349e-005
Heightened Def Con from 2.86349e-005 +++to 2.86359e-005
Heightened Def Con from 2.86876e-005 to 2.86876e-005
Heightened Def Con from 2.86876e-005 to 2.86876e-005
Heightened Def Con from 2.86876e-005 to 2.86886e-005
Heightened Def Con from 2.86892e-005 to 2.86892e-005
Heightened Def Con from 2.86892e-005 to 2.86892e-005
Heightened Def Con from 2.86959e-005 +to 2.86959e-005
Heightened Def Con from 2.88143e-005 +to 2.88145e-005
Heightened Def Con from 2.88152e-005 to 2.88152e-005
Heightened Def Con from 2.88645e-005 +to 2.88646e-005
Heightened Def Con from 2.88646e-005 to 2.88646e-005
Heightened Def Con from 2.88667e-005 to 2.88677e-005
Heightened Def Con from 2.88684e-005 to 2.88684e-005
Heightened Def Con from 2.88684e-005 to 2.88684e-005
Heightened Def Con from 2.89189e-005 +++to 2.8919e-005
Heightened Def Con from 2.89552e-005 to 2.89552e-005
Heightened Def Con from 2.89552e-005 +to 2.89552e-005
Heightened Def Con from 2.89552e-005 +++to 2.89552e-005
Heightened Def Con from 2.89552e-005 to 2.89552e-005
Heightened Def Con from 2.89553e-005 to 2.89553e-005
Heightened Def Con from 2.89553e-005 to 2.89563e-005
Heightened Def Con from 2.89617e-005 to 2.89617e-005
Heightened Def Con from 2.89617e-005 to 2.89617e-005
Heightened Def Con from 2.89657e-005 to 2.89657e-005
Heightened Def Con from 2.89657e-005 ++to 2.89667e-005
Heightened Def Con from 2.89672e-005 to 2.89672e-005
Heightened Def Con from 2.90014e-005 ++to 2.90014e-005
Heightened Def Con from 2.90308e-005 to 2.90318e-005
Heightened Def Con from 2.90359e-005 to 2.90359e-005
Heightened Def Con from 2.90406e-005 to 2.90406e-005
Heightened Def Con from 2.90416e-005 to 2.90417e-005
Heightened Def Con from 2.9051e-005 to 2.9051e-005
Heightened Def Con from 2.94565e-005 to 2.94565e-005
Heightened Def Con from 2.95339e-005 to 2.95339e-005
Heightened Def Con from 2.96039e-005 to 2.96039e-005
Heightened Def Con from 2.96195e-005 to 2.96195e-005
Heightened Def Con from 2.96196e-005 to 2.96206e-005
Heightened Def Con from 2.9668e-005 +to 2.9668e-005
Heightened Def Con from 2.98321e-005 to 2.98331e-005
Heightened Def Con from 2.98331e-005 to 2.98331e-005
Heightened Def Con from 2.98331e-005 to 2.98332e-005
Heightened Def Con from 2.98384e-005 to 2.98394e-005
Heightened Def Con from 2.98395e-005 to 2.98405e-005
Heightened Def Con from 2.98431e-005 to 2.98431e-005
Heightened Def Con from 2.98451e-005 to 2.98451e-005
Heightened Def Con from 2.9906e-005 to 2.9907e-005
Heightened Def Con from 2.99295e-005 to 2.99296e-005
Heightened Def Con from 2.99597e-005 to 2.99597e-005
Heightened Def Con from 2.99597e-005 to 2.99607e-005
Heightened Def Con from 3.00038e-005 +to 3.00048e-005
Heightened Def Con from 3.00162e-005 to 3.00172e-005
Heightened Def Con from 3.00172e-005 to 3.00182e-005
Heightened Def Con from 3.00182e-005 to 3.00192e-005
Heightened Def Con from 3.00219e-005 to 3.00219e-005
Heightened Def Con from 3.00219e-005 to 3.00219e-005
Heightened Def Con from 3.00219e-005 +to 3.00219e-005
Heightened Def Con from 3.00219e-005 to 3.00219e-005
Heightened Def Con from 3.00325e-005 to 3.00325e-005
Heightened Def Con from 3.00334e-005 to 3.00334e-005
Heightened Def Con from 3.00358e-005 to 3.00358e-005
Heightened Def Con from 3.00689e-005 to 3.00699e-005
Heightened Def Con from 3.00745e-005 to 3.00745e-005
Heightened Def Con from 3.00854e-005 to 3.00854e-005
Heightened Def Con from 3.03594e-005 to 3.03594e-005
Heightened Def Con from 3.03594e-005 to 3.03594e-005
Heightened Def Con from 3.03594e-005 to 3.03594e-005
Heightened Def Con from 3.03594e-005 to 3.03594e-005
Heightened Def Con from 3.06771e-005 to 3.06772e-005
Heightened Def Con from 3.06909e-005 to 3.06909e-005
Heightened Def Con from 3.07308e-005 to 3.07308e-005
Heightened Def Con from 3.07645e-005 ++to 3.07645e-005
Heightened Def Con from 3.07649e-005 to 3.07659e-005
Heightened Def Con from 3.08084e-005 to 3.08084e-005
Heightened Def Con from 3.08096e-005 to 3.08106e-005
Heightened Def Con from 3.08576e-005 to 3.08586e-005
Heightened Def Con from 3.08586e-005 to 3.08586e-005
Heightened Def Con from 3.08586e-005 to 3.08586e-005
Heightened Def Con from 3.08586e-005 +to 3.08586e-005
Heightened Def Con from 3.08586e-005 to 3.08606e-005
Heightened Def Con from 3.08915e-005 to 3.08915e-005
Heightened Def Con from 3.0905e-005 to 3.0905e-005
Heightened Def Con from 3.0905e-005 to 3.0905e-005
Heightened Def Con from 3.09142e-005 to 3.09142e-005
Heightened Def Con from 3.09142e-005 to 3.09143e-005
Heightened Def Con from 3.09435e-005 +to 3.09435e-005
Heightened Def Con from 3.09435e-005 to 3.09455e-005
Heightened Def Con from 3.09586e-005 to 3.09596e-005
Heightened Def Con from 3.09684e-005 ++to 3.09694e-005
Heightened Def Con from 3.09694e-005 to 3.09696e-005
Heightened Def Con from 3.10005e-005 to 3.10005e-005
Heightened Def Con from 3.10015e-005 to 3.10015e-005
Heightened Def Con from 3.10015e-005 to 3.10015e-005
Heightened Def Con from 3.10024e-005 to 3.10024e-005
Heightened Def Con from 3.10312e-005 to 3.10312e-005
Heightened Def Con from 3.10312e-005 +to 3.10322e-005
Heightened Def Con from 3.10372e-005 to 3.10372e-005
Heightened Def Con from 3.10372e-005 to 3.10382e-005
Heightened Def Con from 3.10386e-005 to 3.10386e-005
Heightened Def Con from 3.10389e-005 to 3.10391e-005
Heightened Def Con from 3.10407e-005 to 3.10407e-005
Heightened Def Con from 3.10415e-005 to 3.10415e-005
Heightened Def Con from 3.10426e-005 +to 3.10428e-005
Heightened Def Con from 3.10462e-005 to 3.10462e-005
Heightened Def Con from 3.10463e-005 +to 3.10464e-005
Heightened Def Con from 3.10466e-005 to 3.10466e-005
Heightened Def Con from 3.10466e-005 to 3.10476e-005
Heightened Def Con from 3.1624e-005 to 3.1624e-005
Heightened Def Con from 3.16278e-005 to 3.16278e-005
Heightened Def Con from 3.16744e-005 to 3.16744e-005
Heightened Def Con from 3.16835e-005 to 3.16845e-005
Heightened Def Con from 3.17269e-005 to 3.17269e-005
Heightened Def Con from 3.17269e-005 to 3.17271e-005
Heightened Def Con from 3.17302e-005 +to 3.17302e-005
Heightened Def Con from 3.17331e-005 to 3.17332e-005
Heightened Def Con from 3.17373e-005 to 3.17374e-005
Heightened Def Con from 3.17407e-005 to 3.17408e-005
Heightened Def Con from 3.1829e-005 +to 3.183e-005
Heightened Def Con from 3.18551e-005 to 3.18551e-005
Heightened Def Con from 3.18611e-005 to 3.18611e-005
Heightened Def Con from 3.18611e-005 to 3.18612e-005
Heightened Def Con from 3.18693e-005 to 3.18694e-005
Heightened Def Con from 3.19166e-005 to 3.19167e-005
Heightened Def Con from 3.19167e-005 to 3.19167e-005
Heightened Def Con from 3.19167e-005 to 3.19167e-005
Heightened Def Con from 3.19615e-005 to 3.19615e-005
Heightened Def Con from 3.19669e-005 to 3.19669e-005
Heightened Def Con from 3.19683e-005 to 3.19683e-005
Heightened Def Con from 3.19683e-005 to 3.19683e-005
Heightened Def Con from 3.19683e-005 to 3.19683e-005
Heightened Def Con from 3.19796e-005 to 3.19796e-005
Heightened Def Con from 3.19817e-005 +to 3.19817e-005
Heightened Def Con from 3.20001e-005 to 3.20001e-005
Heightened Def Con from 3.20011e-005 to 3.20012e-005
Heightened Def Con from 3.20017e-005 to 3.20017e-005
Heightened Def Con from 3.20031e-005 +to 3.20031e-005
Heightened Def Con from 3.20031e-005 to 3.20041e-005
Heightened Def Con from 3.20045e-005 to 3.20046e-005
Heightened Def Con from 3.20301e-005 to 3.20301e-005
Heightened Def Con from 3.20301e-005 to 3.20302e-005
Heightened Def Con from 3.20315e-005 to 3.20316e-005
Heightened Def Con from 3.20334e-005 to 3.20334e-005
Heightened Def Con from 3.20372e-005 to 3.20372e-005
Heightened Def Con from 3.20372e-005 to 3.20372e-005
Heightened Def Con from 3.20379e-005 +to 3.20379e-005
Heightened Def Con from 3.20379e-005 to 3.20399e-005
Heightened Def Con from 3.20408e-005 to 3.20409e-005
Heightened Def Con from 3.20425e-005 to 3.20435e-005
Heightened Def Con from 3.20435e-005 to 3.20436e-005
Heightened Def Con from 3.20436e-005 to 3.20437e-005
Heightened Def Con from 3.20437e-005 to 3.20437e-005
Heightened Def Con from 3.20919e-005 to 3.20929e-005
Heightened Def Con from 3.22294e-005 to 3.22294e-005
Heightened Def Con from 3.22294e-005 to 3.22306e-005
Heightened Def Con from 3.22306e-005 to 3.22316e-005
Heightened Def Con from 3.22354e-005 to 3.22364e-005
Heightened Def Con from 3.2252e-005 ++to 3.2252e-005
Heightened Def Con from 3.2252e-005 to 3.2252e-005
Heightened Def Con from 3.23382e-005 to 3.23382e-005
Heightened Def Con from 3.24324e-005 to 3.24324e-005
Heightened Def Con from 3.24324e-005 to 3.24324e-005
Heightened Def Con from 3.24324e-005 to 3.24324e-005
Heightened Def Con from 3.25125e-005 to 3.25125e-005
Heightened Def Con from 3.25125e-005 to 3.25145e-005
Heightened Def Con from 3.25914e-005 to 3.25914e-005
Heightened Def Con from 3.25914e-005 to 3.25924e-005
Heightened Def Con from 3.26655e-005 to 3.26655e-005
Heightened Def Con from 3.26655e-005 ++to 3.26665e-005
Heightened Def Con from 3.26665e-005 to 3.26665e-005
Heightened Def Con from 3.26665e-005 to 3.26665e-005
Heightened Def Con from 3.26665e-005 to 3.26665e-005
Heightened Def Con from 3.26665e-005 ++to 3.26675e-005
Heightened Def Con from 3.26733e-005 to 3.26733e-005
Heightened Def Con from 3.26733e-005 to 3.26743e-005
Heightened Def Con from 3.26743e-005 to 3.26743e-005
Heightened Def Con from 3.2725e-005 to 3.2725e-005
Heightened Def Con from 3.27603e-005 to 3.27603e-005
Heightened Def Con from 3.28194e-005 +to 3.28204e-005
Heightened Def Con from 3.28204e-005 to 3.28204e-005
Heightened Def Con from 3.28208e-005 to 3.28208e-005
Heightened Def Con from 3.28208e-005 to 3.28208e-005
Heightened Def Con from 3.28852e-005 to 3.28852e-005
Heightened Def Con from 3.28852e-005 to 3.28853e-005
Heightened Def Con from 3.29651e-005 +to 3.29651e-005
Heightened Def Con from 3.29653e-005 +to 3.29663e-005
Heightened Def Con from 3.29705e-005 to 3.29705e-005
Heightened Def Con from 3.29705e-005 +to 3.29715e-005
Heightened Def Con from 3.29715e-005 ++to 3.29716e-005
Heightened Def Con from 3.29755e-005 to 3.29755e-005
Heightened Def Con from 3.2982e-005 to 3.2982e-005
Heightened Def Con from 3.2982e-005 to 3.2983e-005
Heightened Def Con from 3.303e-005 to 3.303e-005
Heightened Def Con from 3.303e-005 +to 3.303e-005
Heightened Def Con from 3.303e-005 to 3.30301e-005
Heightened Def Con from 3.30312e-005 to 3.30312e-005
Heightened Def Con from 3.30335e-005 to 3.30335e-005
Heightened Def Con from 3.30335e-005 ++to 3.30335e-005
Heightened Def Con from 3.30345e-005 to 3.30355e-005
Heightened Def Con from 3.30358e-005 to 3.30368e-005
Heightened Def Con from 3.30372e-005 to 3.30372e-005
Heightened Def Con from 3.30372e-005 to 3.30392e-005
Heightened Def Con from 3.30393e-005 to 3.30393e-005
Heightened Def Con from 3.30393e-005 to 3.30404e-005
Heightened Def Con from 3.30406e-005 to 3.30406e-005
Heightened Def Con from 3.30411e-005 to 3.30411e-005
Heightened Def Con from 3.30411e-005 to 3.30411e-005
Heightened Def Con from 3.30417e-005 to 3.30417e-005
Heightened Def Con from 3.30419e-005 to 3.3043e-005
Heightened Def Con from 3.3043e-005 to 3.3043e-005
Heightened Def Con from 3.30431e-005 to 3.30431e-005
Heightened Def Con from 3.30432e-005 to 3.30432e-005
Heightened Def Con from 3.30437e-005 +to 3.30437e-005
Heightened Def Con from 3.30437e-005 +to 3.30437e-005
Heightened Def Con from 3.35571e-005 to 3.35571e-005
Heightened Def Con from 3.36954e-005 to 3.36964e-005
Heightened Def Con from 3.37132e-005 to 3.37132e-005
Heightened Def Con from 3.37137e-005 to 3.37137e-005
Heightened Def Con from 3.37144e-005 to 3.37144e-005
Heightened Def Con from 3.37144e-005 to 3.37155e-005
Heightened Def Con from 3.37192e-005 to 3.37202e-005
Heightened Def Con from 3.37936e-005 to 3.37937e-005
Heightened Def Con from 3.38272e-005 to 3.38283e-005
Heightened Def Con from 3.38311e-005 to 3.38321e-005
Heightened Def Con from 3.38325e-005 to 3.38325e-005
Heightened Def Con from 3.38325e-005 to 3.38325e-005
Heightened Def Con from 3.38381e-005 to 3.38382e-005
Heightened Def Con from 3.39032e-005 +to 3.39032e-005
Heightened Def Con from 3.39053e-005 to 3.39053e-005
Heightened Def Con from 3.39112e-005 to 3.39112e-005
Heightened Def Con from 3.39603e-005 to 3.39603e-005
Heightened Def Con from 3.39622e-005 to 3.39632e-005
Heightened Def Con from 3.40315e-005 to 3.40315e-005
Heightened Def Con from 3.40317e-005 to 3.40327e-005
Heightened Def Con from 3.40336e-005 to 3.40336e-005
Heightened Def Con from 3.40337e-005 to 3.40337e-005
Heightened Def Con from 3.40337e-005 to 3.40357e-005
Heightened Def Con from 3.46097e-005 to 3.46107e-005
Heightened Def Con from 3.46201e-005 to 3.46201e-005
Heightened Def Con from 3.46201e-005 to 3.46201e-005
Heightened Def Con from 3.46201e-005 to 3.46211e-005
Heightened Def Con from 3.48437e-005 ++to 3.48438e-005
Heightened Def Con from 3.48438e-005 to 3.48438e-005
Heightened Def Con from 3.48438e-005 to 3.48448e-005
Heightened Def Con from 3.49059e-005 to 3.49059e-005
Heightened Def Con from 3.49059e-005 to 3.49059e-005
Heightened Def Con from 3.49059e-005 to 3.49059e-005
Heightened Def Con from 3.49451e-005 to 3.49451e-005
Heightened Def Con from 3.4954e-005 to 3.4954e-005
Heightened Def Con from 3.4954e-005 to 3.4956e-005
Heightened Def Con from 3.4956e-005 to 3.4956e-005
Heightened Def Con from 3.49587e-005 to 3.49587e-005
Heightened Def Con from 3.49587e-005 to 3.49587e-005
Heightened Def Con from 3.49587e-005 to 3.49607e-005
Heightened Def Con from 3.49653e-005 to 3.49653e-005
Heightened Def Con from 3.49653e-005 to 3.49663e-005
Heightened Def Con from 3.50331e-005 to 3.50331e-005
Heightened Def Con from 3.50339e-005 to 3.50339e-005
Heightened Def Con from 3.50348e-005 to 3.50348e-005
Heightened Def Con from 3.50356e-005 to 3.50356e-005
Heightened Def Con from 3.50356e-005 to 3.50358e-005
Heightened Def Con from 3.50363e-005 to 3.50363e-005
Heightened Def Con from 3.50363e-005 to 3.50365e-005
Heightened Def Con from 3.50365e-005 +to 3.50375e-005
Heightened Def Con from 3.50383e-005 to 3.50383e-005
Heightened Def Con from 3.50392e-005 +to 3.50393e-005
Heightened Def Con from 3.50393e-005 to 3.50403e-005
Heightened Def Con from 3.50406e-005 to 3.50406e-005
Heightened Def Con from 3.50411e-005 to 3.50412e-005
Heightened Def Con from 3.50413e-005 to 3.50413e-005
Heightened Def Con from 3.50413e-005 to 3.50414e-005
Heightened Def Con from 3.50414e-005 +to 3.50414e-005
Heightened Def Con from 3.50414e-005 to 3.50414e-005
Heightened Def Con from 3.50414e-005 to 3.50434e-005
Heightened Def Con from 3.57205e-005 to 3.57215e-005
Heightened Def Con from 3.5737e-005 to 3.5737e-005
Heightened Def Con from 3.57375e-005 to 3.57385e-005
Heightened Def Con from 3.57385e-005 to 3.57395e-005
Heightened Def Con from 3.57988e-005 to 3.57988e-005
Heightened Def Con from 3.57988e-005 to 3.57988e-005
Heightened Def Con from 3.59001e-005 to 3.59001e-005
Heightened Def Con from 3.59001e-005 to 3.59001e-005
Heightened Def Con from 3.60031e-005 to 3.60031e-005
Heightened Def Con from 3.60032e-005 to 3.60032e-005
Heightened Def Con from 3.60036e-005 to 3.60036e-005
Heightened Def Con from 3.60036e-005 to 3.60056e-005
Heightened Def Con from 3.60074e-005 to 3.60075e-005
Heightened Def Con from 3.60082e-005 +to 3.60102e-005
Heightened Def Con from 3.60102e-005 +to 3.60102e-005
Heightened Def Con from 3.60107e-005 to 3.60108e-005
Heightened Def Con from 3.60108e-005 ++to 3.60108e-005
Heightened Def Con from 3.60108e-005 to 3.60111e-005
Heightened Def Con from 3.60353e-005 to 3.60354e-005
Heightened Def Con from 3.60358e-005 to 3.60358e-005
Heightened Def Con from 3.60362e-005 to 3.60372e-005
Heightened Def Con from 3.60383e-005 to 3.60393e-005
Heightened Def Con from 3.60393e-005 to 3.60393e-005
Heightened Def Con from 3.60393e-005 to 3.60395e-005
Heightened Def Con from 3.60395e-005 to 3.60405e-005
Heightened Def Con from 3.60411e-005 to 3.60414e-005
Heightened Def Con from 3.64741e-005 to 3.64741e-005
Heightened Def Con from 3.64745e-005 +to 3.64755e-005
Heightened Def Con from 3.64755e-005 to 3.64766e-005
Heightened Def Con from 3.64842e-005 to 3.64842e-005
Heightened Def Con from 3.64842e-005 to 3.64842e-005
Heightened Def Con from 3.66298e-005 to 3.66298e-005
Heightened Def Con from 3.67293e-005 +to 3.67303e-005
Heightened Def Con from 3.68658e-005 ++to 3.68668e-005
Heightened Def Con from 3.68668e-005 +to 3.68678e-005
Heightened Def Con from 3.68702e-005 to 3.68722e-005
Heightened Def Con from 3.69039e-005 to 3.6904e-005
Heightened Def Con from 3.69308e-005 +to 3.69318e-005
Heightened Def Con from 3.69318e-005 to 3.69318e-005
Heightened Def Con from 3.69318e-005 +to 3.69328e-005
Heightened Def Con from 3.69337e-005 +to 3.69337e-005
Heightened Def Con from 3.69337e-005 to 3.69337e-005
Heightened Def Con from 3.69337e-005 to 3.69357e-005
Heightened Def Con from 3.6957e-005 +to 3.6957e-005
Heightened Def Con from 3.6957e-005 to 3.6957e-005
Heightened Def Con from 3.6957e-005 ++to 3.6958e-005
Heightened Def Con from 3.69618e-005 to 3.69619e-005
Heightened Def Con from 3.69619e-005 to 3.69619e-005
Heightened Def Con from 3.69628e-005 to 3.69628e-005
Heightened Def Con from 3.69628e-005 to 3.69631e-005
Heightened Def Con from 3.7e-005 ++to 3.7e-005
Heightened Def Con from 3.70335e-005 to 3.70335e-005
Heightened Def Con from 3.70348e-005 +to 3.70358e-005
Heightened Def Con from 3.70358e-005 to 3.70358e-005
Heightened Def Con from 3.70358e-005 +to 3.7036e-005
Heightened Def Con from 3.70368e-005 to 3.70368e-005
Heightened Def Con from 3.70379e-005 to 3.7038e-005
Heightened Def Con from 3.70384e-005 to 3.70384e-005
Heightened Def Con from 3.75873e-005 to 3.75873e-005
Heightened Def Con from 3.77891e-005 to 3.77891e-005
Heightened Def Con from 3.77891e-005 +to 3.77891e-005
Heightened Def Con from 3.77891e-005 to 3.77892e-005
Heightened Def Con from 3.78392e-005 to 3.78394e-005
Heightened Def Con from 3.78397e-005 to 3.78417e-005
Heightened Def Con from 3.78615e-005 to 3.78635e-005
Heightened Def Con from 3.79221e-005 to 3.79221e-005
Heightened Def Con from 3.80006e-005 +to 3.80006e-005
Heightened Def Con from 3.80014e-005 to 3.80024e-005
Heightened Def Con from 3.80024e-005 to 3.80034e-005
Heightened Def Con from 3.80323e-005 to 3.80323e-005
Heightened Def Con from 3.80329e-005 to 3.80339e-005
Heightened Def Con from 3.80635e-005 to 3.80636e-005
Heightened Def Con from 3.80726e-005 to 3.80726e-005
Heightened Def Con from 3.8181e-005 to 3.8182e-005
Heightened Def Con from 3.84891e-005 +to 3.84901e-005
Heightened Def Con from 3.8514e-005 +to 3.85141e-005
Heightened Def Con from 3.86133e-005 to 3.86133e-005
Heightened Def Con from 3.86133e-005 to 3.86153e-005
Heightened Def Con from 3.86153e-005 ++++to 3.86153e-005
Heightened Def Con from 3.86182e-005 +to 3.86193e-005
Heightened Def Con from 3.86201e-005 to 3.86211e-005
Heightened Def Con from 3.86898e-005 to 3.86908e-005
Heightened Def Con from 3.86908e-005 +to 3.86928e-005
Heightened Def Con from 3.86931e-005 to 3.86931e-005
Heightened Def Con from 3.86931e-005 to 3.86931e-005
Heightened Def Con from 3.86931e-005 ++to 3.86932e-005
Heightened Def Con from 3.86932e-005 +to 3.86932e-005
Heightened Def Con from 3.86932e-005 to 3.86932e-005
Heightened Def Con from 3.86932e-005 to 3.86932e-005
Heightened Def Con from 3.86932e-005 to 3.86932e-005
Heightened Def Con from 3.87074e-005 to 3.87074e-005
Heightened Def Con from 3.88155e-005 to 3.88155e-005
Heightened Def Con from 3.88159e-005 +to 3.88169e-005
Heightened Def Con from 3.88908e-005 to 3.88909e-005
Heightened Def Con from 3.88909e-005 +++to 3.88909e-005
Heightened Def Con from 3.88927e-005 +to 3.88937e-005
Heightened Def Con from 3.89294e-005 +to 3.89295e-005
Heightened Def Con from 3.89295e-005 +to 3.89295e-005
Heightened Def Con from 3.89295e-005 +++to 3.89296e-005
Heightened Def Con from 3.89653e-005 ++to 3.89653e-005
Heightened Def Con from 3.89653e-005 to 3.89663e-005
Heightened Def Con from 3.90029e-005 to 3.90031e-005
Heightened Def Con from 3.90114e-005 to 3.90114e-005
Heightened Def Con from 3.90116e-005 +to 3.90116e-005
Heightened Def Con from 3.90138e-005 to 3.90148e-005
Heightened Def Con from 3.90321e-005 to 3.90322e-005
Heightened Def Con from 3.90381e-005 to 3.90381e-005
Heightened Def Con from 3.90389e-005 to 3.90389e-005
Heightened Def Con from 3.90394e-005 to 3.90396e-005
Heightened Def Con from 3.90403e-005 to 3.90414e-005
Heightened Def Con from 3.90418e-005 ++to 3.90418e-005
Heightened Def Con from 3.90421e-005 to 3.90423e-005
Heightened Def Con from 3.90444e-005 to 3.90446e-005
Heightened Def Con from 3.90447e-005 to 3.90457e-005
Heightened Def Con from 3.90467e-005 +++to 3.90468e-005
Heightened Def Con from 3.90474e-005 to 3.90475e-005
Heightened Def Con from 3.90475e-005 to 3.90477e-005
Heightened Def Con from 3.90678e-005 to 3.90688e-005
Heightened Def Con from 3.94745e-005 to 3.94746e-005
Heightened Def Con from 3.95967e-005 +to 3.95967e-005
Heightened Def Con from 3.98136e-005 to 3.98146e-005
Heightened Def Con from 3.98146e-005 +to 3.98146e-005
Heightened Def Con from 3.98146e-005 to 3.98146e-005
Heightened Def Con from 3.98463e-005 to 3.98463e-005
Heightened Def Con from 3.98463e-005 to 3.98463e-005
Heightened Def Con from 3.98698e-005 +to 3.98699e-005
Heightened Def Con from 3.98699e-005 to 3.98699e-005
Heightened Def Con from 3.98865e-005 to 3.98865e-005
Heightened Def Con from 3.98883e-005 to 3.98883e-005
Heightened Def Con from 3.98883e-005 to 3.98883e-005
Heightened Def Con from 3.98883e-005 to 3.98883e-005
Heightened Def Con from 3.98883e-005 to 3.98883e-005
Heightened Def Con from 3.99154e-005 +to 3.99154e-005
Heightened Def Con from 3.99154e-005 to 3.99165e-005
Heightened Def Con from 3.99275e-005 to 3.99275e-005
Heightened Def Con from 3.99368e-005 to 3.99368e-005
Heightened Def Con from 3.99383e-005 to 3.99393e-005
Heightened Def Con from 3.99403e-005 to 3.99403e-005
Heightened Def Con from 3.99403e-005 to 3.99413e-005
Heightened Def Con from 3.99552e-005 to 3.99552e-005
Heightened Def Con from 3.99552e-005 to 3.99562e-005
Heightened Def Con from 3.99721e-005 to 3.99721e-005
Heightened Def Con from 3.99721e-005 to 3.99721e-005
Heightened Def Con from 4.00009e-005 to 4.00019e-005
Heightened Def Con from 4.00019e-005 to 4.0002e-005
Heightened Def Con from 4.00024e-005 to 4.00024e-005
Heightened Def Con from 4.00024e-005 to 4.00026e-005
Heightened Def Con from 4.00026e-005 to 4.00037e-005
Heightened Def Con from 4.00757e-005 to 4.00759e-005
Heightened Def Con from 4.00759e-005 to 4.00759e-005
Heightened Def Con from 4.00974e-005 to 4.00976e-005
Heightened Def Con from 4.05051e-005 to 4.05061e-005
Heightened Def Con from 4.05061e-005 to 4.05071e-005
Heightened Def Con from 4.05071e-005 to 4.05081e-005
Heightened Def Con from 4.06914e-005 +to 4.06914e-005
Heightened Def Con from 4.06914e-005 to 4.06924e-005
Heightened Def Con from 4.06936e-005 ++to 4.06948e-005
Heightened Def Con from 4.06952e-005 to 4.06962e-005
Heightened Def Con from 4.07724e-005 to 4.07724e-005
Heightened Def Con from 4.07727e-005 to 4.07727e-005
Heightened Def Con from 4.07727e-005 to 4.0773e-005
Heightened Def Con from 4.07748e-005 +to 4.07748e-005
Heightened Def Con from 4.07748e-005 to 4.07759e-005
Heightened Def Con from 4.07841e-005 +to 4.07841e-005
Heightened Def Con from 4.07841e-005 to 4.07851e-005
Heightened Def Con from 4.08185e-005 +to 4.08195e-005
Heightened Def Con from 4.08195e-005 to 4.08196e-005
Heightened Def Con from 4.08225e-005 ++to 4.08225e-005
Heightened Def Con from 4.08225e-005 to 4.08225e-005
Heightened Def Con from 4.08476e-005 to 4.08476e-005
Heightened Def Con from 4.08497e-005 +to 4.08507e-005
Heightened Def Con from 4.08507e-005 to 4.08517e-005
Heightened Def Con from 4.0854e-005 to 4.0854e-005
Heightened Def Con from 4.08585e-005 to 4.08585e-005
Heightened Def Con from 4.0963e-005 to 4.0963e-005
Heightened Def Con from 4.0963e-005 to 4.0963e-005
Heightened Def Con from 4.0963e-005 +to 4.0964e-005
Heightened Def Con from 4.09646e-005 to 4.09656e-005
Heightened Def Con from 4.1e-005 to 4.1e-005
Heightened Def Con from 4.1e-005 +to 4.1e-005
Heightened Def Con from 4.10014e-005 to 4.10014e-005
Heightened Def Con from 4.1069e-005 to 4.1069e-005
Heightened Def Con from 4.11154e-005 to 4.11164e-005
Heightened Def Con from 4.16331e-005 to 4.16331e-005
Heightened Def Con from 4.18702e-005 to 4.18702e-005
Heightened Def Con from 4.18702e-005 to 4.18702e-005
Heightened Def Con from 4.18883e-005 to 4.18883e-005
Heightened Def Con from 4.19263e-005 to 4.19263e-005
Heightened Def Con from 4.19263e-005 to 4.19273e-005
Heightened Def Con from 4.20004e-005 to 4.20015e-005
Heightened Def Con from 4.20022e-005 ++to 4.20023e-005
Heightened Def Con from 4.20313e-005 to 4.20313e-005
Heightened Def Con from 4.20313e-005 to 4.20314e-005
Heightened Def Con from 4.20821e-005 to 4.20821e-005
Heightened Def Con from 4.20991e-005 to 4.20992e-005
Heightened Def Con from 4.22253e-005 to 4.22253e-005
Heightened Def Con from 4.22253e-005 to 4.22254e-005
Heightened Def Con from 4.2501e-005 to 4.2501e-005
Heightened Def Con from 4.25054e-005 to 4.25055e-005
Heightened Def Con from 4.25055e-005 to 4.25056e-005
Heightened Def Con from 4.25056e-005 to 4.25056e-005
Heightened Def Con from 4.27134e-005 to 4.27134e-005
Heightened Def Con from 4.27138e-005 to 4.27148e-005
Heightened Def Con from 4.27209e-005 to 4.27219e-005
Heightened Def Con from 4.27219e-005 to 4.27219e-005
Heightened Def Con from 4.2823e-005 to 4.2823e-005
Heightened Def Con from 4.28479e-005 to 4.2849e-005
Heightened Def Con from 4.28933e-005 to 4.28943e-005
Heightened Def Con from 4.28943e-005 to 4.28943e-005
Heightened Def Con from 4.28943e-005 +to 4.28953e-005
Heightened Def Con from 4.29e-005 to 4.29001e-005
Heightened Def Con from 4.29014e-005 to 4.29034e-005
Heightened Def Con from 4.29254e-005 to 4.29264e-005
Heightened Def Con from 4.29282e-005 +to 4.29282e-005
Heightened Def Con from 4.29353e-005 to 4.29353e-005
Heightened Def Con from 4.29505e-005 to 4.29505e-005
Heightened Def Con from 4.29673e-005 to 4.29683e-005
Heightened Def Con from 4.29692e-005 to 4.29692e-005
Heightened Def Con from 4.29692e-005 +to 4.29702e-005
Heightened Def Con from 4.29702e-005 +to 4.29702e-005
Heightened Def Con from 4.29702e-005 to 4.29714e-005
Heightened Def Con from 4.3e-005 to 4.3e-005
Heightened Def Con from 4.3e-005 to 4.30003e-005
Heightened Def Con from 4.30003e-005 +to 4.30004e-005
Heightened Def Con from 4.30004e-005 +to 4.30014e-005
Heightened Def Con from 4.3002e-005 to 4.3002e-005
Heightened Def Con from 4.30324e-005 to 4.30325e-005
Heightened Def Con from 4.30325e-005 to 4.30325e-005
Heightened Def Con from 4.30338e-005 to 4.30338e-005
Heightened Def Con from 4.30349e-005 to 4.30349e-005
Heightened Def Con from 4.30666e-005 to 4.30666e-005
Heightened Def Con from 4.30693e-005 to 4.30703e-005
Heightened Def Con from 4.34329e-005 to 4.34329e-005
Heightened Def Con from 4.3434e-005 to 4.3435e-005
Heightened Def Con from 4.3718e-005 to 4.37182e-005
Heightened Def Con from 4.38417e-005 +to 4.38427e-005
Heightened Def Con from 4.385e-005 to 4.3851e-005
Heightened Def Con from 4.3851e-005 to 4.38511e-005
Heightened Def Con from 4.38535e-005 to 4.38535e-005
Heightened Def Con from 4.38535e-005 to 4.38537e-005
Heightened Def Con from 4.38626e-005 +to 4.38626e-005
Heightened Def Con from 4.38626e-005 to 4.38626e-005
Heightened Def Con from 4.39128e-005 to 4.39128e-005
Heightened Def Con from 4.39347e-005 to 4.39349e-005
Heightened Def Con from 4.39509e-005 +to 4.39509e-005
Heightened Def Con from 4.40004e-005 to 4.40004e-005
Heightened Def Con from 4.40005e-005 to 4.40005e-005
Heightened Def Con from 4.40396e-005 to 4.40396e-005
Heightened Def Con from 4.40407e-005 to 4.40407e-005
Heightened Def Con from 4.40412e-005 to 4.40412e-005
Heightened Def Con from 4.40412e-005 to 4.40412e-005
Heightened Def Con from 4.40416e-005 to 4.40417e-005
Heightened Def Con from 4.4042e-005 to 4.4042e-005
Heightened Def Con from 4.40424e-005 to 4.40424e-005
Heightened Def Con from 4.40424e-005 to 4.40425e-005
Heightened Def Con from 4.40433e-005 to 4.40434e-005
Heightened Def Con from 4.40706e-005 to 4.40706e-005
Heightened Def Con from 4.44104e-005 to 4.44104e-005
Heightened Def Con from 4.45762e-005 to 4.45772e-005
Heightened Def Con from 4.45838e-005 to 4.45838e-005
Heightened Def Con from 4.45913e-005 to 4.45923e-005
Heightened Def Con from 4.46035e-005 +to 4.46035e-005
Heightened Def Con from 4.46035e-005 +to 4.46035e-005
Heightened Def Con from 4.46035e-005 +to 4.46045e-005
Heightened Def Con from 4.46045e-005 to 4.46045e-005
Heightened Def Con from 4.461e-005 to 4.461e-005
Heightened Def Con from 4.46102e-005 to 4.46112e-005
Heightened Def Con from 4.47127e-005 to 4.47127e-005
Heightened Def Con from 4.4752e-005 to 4.4753e-005
Heightened Def Con from 4.47616e-005 to 4.47616e-005
Heightened Def Con from 4.4771e-005 to 4.4772e-005
Heightened Def Con from 4.49161e-005 to 4.49171e-005
Heightened Def Con from 4.49171e-005 +to 4.49171e-005
Heightened Def Con from 4.49171e-005 to 4.49171e-005
Heightened Def Con from 4.49275e-005 to 4.49275e-005
Heightened Def Con from 4.49275e-005 to 4.49295e-005
Heightened Def Con from 4.49593e-005 to 4.49603e-005
Heightened Def Con from 4.49603e-005 to 4.49623e-005
Heightened Def Con from 4.50004e-005 to 4.50004e-005
Heightened Def Con from 4.50004e-005 to 4.50004e-005
Heightened Def Con from 4.50004e-005 to 4.50005e-005
Heightened Def Con from 4.50005e-005 to 4.50005e-005
Heightened Def Con from 4.50005e-005 to 4.50015e-005
Heightened Def Con from 4.50015e-005 to 4.50015e-005
Heightened Def Con from 4.50017e-005 to 4.50027e-005
Heightened Def Con from 4.50344e-005 to 4.50344e-005
Heightened Def Con from 4.50409e-005 to 4.50409e-005
Heightened Def Con from 4.50409e-005 to 4.50409e-005
Heightened Def Con from 4.50409e-005 to 4.50409e-005
Heightened Def Con from 4.50409e-005 +to 4.50419e-005
Heightened Def Con from 4.50701e-005 to 4.50701e-005
Heightened Def Con from 4.50726e-005 to 4.50736e-005
Heightened Def Con from 4.50763e-005 to 4.50764e-005
Heightened Def Con from 4.52355e-005 to 4.52355e-005
Heightened Def Con from 4.53221e-005 to 4.53222e-005
Heightened Def Con from 4.55453e-005 to 4.55453e-005
Heightened Def Con from 4.55453e-005 to 4.55453e-005
Heightened Def Con from 4.56386e-005 to 4.56386e-005
Heightened Def Con from 4.56394e-005 to 4.56404e-005
Heightened Def Con from 4.57722e-005 to 4.57732e-005
Heightened Def Con from 4.5816e-005 to 4.58161e-005
Heightened Def Con from 4.59014e-005 to 4.59014e-005
Heightened Def Con from 4.59514e-005 to 4.59514e-005
Heightened Def Con from 4.60378e-005 to 4.60378e-005
Heightened Def Con from 4.60402e-005 to 4.60402e-005
Heightened Def Con from 4.60402e-005 to 4.60402e-005
Heightened Def Con from 4.60402e-005 to 4.60402e-005
Heightened Def Con from 4.60402e-005 to 4.60402e-005
Heightened Def Con from 4.60754e-005 to 4.60754e-005
Heightened Def Con from 4.6079e-005 to 4.6079e-005
Heightened Def Con from 4.60805e-005 to 4.60815e-005
Heightened Def Con from 4.64287e-005 to 4.64287e-005
Heightened Def Con from 4.64614e-005 to 4.64624e-005
Heightened Def Con from 4.64724e-005 to 4.64724e-005
Heightened Def Con from 4.65395e-005 ++to 4.65405e-005
Heightened Def Con from 4.65763e-005 to 4.65763e-005
Heightened Def Con from 4.6724e-005 to 4.6724e-005
Heightened Def Con from 4.6724e-005 to 4.67242e-005
Heightened Def Con from 4.67327e-005 to 4.67337e-005
Heightened Def Con from 4.67365e-005 to 4.67365e-005
Heightened Def Con from 4.69357e-005 +to 4.69357e-005
Heightened Def Con from 4.69437e-005 to 4.69437e-005
Heightened Def Con from 4.69607e-005 to 4.69617e-005
Heightened Def Con from 4.70034e-005 to 4.70045e-005
Heightened Def Con from 4.70045e-005 +to 4.70055e-005
Heightened Def Con from 4.70064e-005 to 4.70064e-005
Heightened Def Con from 4.70064e-005 +++to 4.70074e-005
Heightened Def Con from 4.70138e-005 to 4.70138e-005
Heightened Def Con from 4.70138e-005 to 4.70138e-005
Heightened Def Con from 4.70138e-005 to 4.70138e-005
Heightened Def Con from 4.70138e-005 to 4.70138e-005
Heightened Def Con from 4.70138e-005 to 4.70158e-005
Heightened Def Con from 4.70346e-005 to 4.70346e-005
Heightened Def Con from 4.70346e-005 to 4.70346e-005
Heightened Def Con from 4.70377e-005 to 4.70377e-005
Heightened Def Con from 4.7039e-005 to 4.7041e-005
Heightened Def Con from 4.7041e-005 to 4.7041e-005
Heightened Def Con from 4.7041e-005 to 4.7041e-005
Heightened Def Con from 4.70411e-005 to 4.70421e-005
Heightened Def Con from 4.70441e-005 to 4.70451e-005
Heightened Def Con from 4.70465e-005 to 4.70465e-005
Heightened Def Con from 4.70494e-005 to 4.70494e-005
Heightened Def Con from 4.70669e-005 to 4.70679e-005
Heightened Def Con from 4.70729e-005 to 4.70729e-005
Heightened Def Con from 4.76436e-005 to 4.76446e-005
Heightened Def Con from 4.77901e-005 +to 4.77901e-005
Heightened Def Con from 4.77901e-005 to 4.77903e-005
Heightened Def Con from 4.77973e-005 to 4.77983e-005
Heightened Def Con from 4.78462e-005 to 4.78462e-005
Heightened Def Con from 4.79231e-005 to 4.79241e-005
Heightened Def Con from 4.79259e-005 to 4.79269e-005
Heightened Def Con from 4.79285e-005 to 4.79305e-005
Heightened Def Con from 4.79392e-005 to 4.79392e-005
Heightened Def Con from 4.79477e-005 to 4.79488e-005
Heightened Def Con from 4.79488e-005 to 4.79488e-005
Heightened Def Con from 4.79488e-005 +to 4.79488e-005
Heightened Def Con from 4.79593e-005 to 4.79593e-005
Heightened Def Con from 4.79762e-005 to 4.79762e-005
Heightened Def Con from 4.803e-005 to 4.803e-005
Heightened Def Con from 4.80315e-005 to 4.80315e-005
Heightened Def Con from 4.80315e-005 to 4.80315e-005
Heightened Def Con from 4.80374e-005 to 4.80374e-005
Heightened Def Con from 4.80383e-005 to 4.80383e-005
Heightened Def Con from 4.80383e-005 to 4.80383e-005
Heightened Def Con from 4.80388e-005 to 4.80389e-005
Heightened Def Con from 4.80396e-005 to 4.80396e-005
Heightened Def Con from 4.80428e-005 to 4.80428e-005
Heightened Def Con from 4.80477e-005 to 4.80477e-005
Heightened Def Con from 4.80493e-005 to 4.80513e-005
Heightened Def Con from 4.80766e-005 to 4.80766e-005
Heightened Def Con from 4.81226e-005 to 4.81236e-005
Heightened Def Con from 4.83111e-005 to 4.83121e-005
Heightened Def Con from 4.84061e-005 to 4.84061e-005
Heightened Def Con from 4.85038e-005 +to 4.85048e-005
Heightened Def Con from 4.85056e-005 ++to 4.85066e-005
Heightened Def Con from 4.85066e-005 +to 4.85076e-005
Heightened Def Con from 4.85077e-005 to 4.85078e-005
Heightened Def Con from 4.85504e-005 to 4.85514e-005
Heightened Def Con from 4.85523e-005 to 4.85523e-005
Heightened Def Con from 4.85523e-005 to 4.85523e-005
Heightened Def Con from 4.85523e-005 to 4.85523e-005
Heightened Def Con from 4.85523e-005 to 4.85524e-005
Heightened Def Con from 4.85588e-005 +to 4.85588e-005
Heightened Def Con from 4.85588e-005 to 4.85588e-005
Heightened Def Con from 4.85588e-005 to 4.85588e-005
Heightened Def Con from 4.86179e-005 +to 4.86179e-005
Heightened Def Con from 4.86179e-005 to 4.8619e-005
Heightened Def Con from 4.87085e-005 +++++to 4.87085e-005
Heightened Def Con from 4.87557e-005 +to 4.87557e-005
Heightened Def Con from 4.8771e-005 to 4.87712e-005
Heightened Def Con from 4.87712e-005 to 4.87722e-005
Heightened Def Con from 4.8818e-005 to 4.8819e-005
Heightened Def Con from 4.8819e-005 +to 4.8819e-005
Heightened Def Con from 4.8819e-005 to 4.8819e-005
Heightened Def Con from 4.88423e-005 to 4.88423e-005
Heightened Def Con from 4.88423e-005 to 4.88433e-005
Heightened Def Con from 4.88621e-005 ++to 4.88621e-005
Heightened Def Con from 4.89052e-005 to 4.89053e-005
Heightened Def Con from 4.89231e-005 to 4.89241e-005
Heightened Def Con from 4.89241e-005 to 4.89251e-005
Heightened Def Con from 4.96057e-005 to 4.96057e-005
Heightened Def Con from 4.96137e-005 to 4.96137e-005
Heightened Def Con from 4.97868e-005 to 4.97888e-005
Heightened Def Con from 4.98263e-005 to 4.98273e-005
Heightened Def Con from 4.98917e-005 to 4.98919e-005
Heightened Def Con from 4.99224e-005 to 4.99224e-005
Heightened Def Con from 4.99582e-005 to 4.99582e-005
Heightened Def Con from 4.99582e-005 to 4.99583e-005
Heightened Def Con from 4.99591e-005 to 4.99591e-005
Heightened Def Con from 4.99698e-005 to 4.99699e-005
Heightened Def Con from 4.99699e-005 to 4.99699e-005
Heightened Def Con from 4.99713e-005 to 4.99713e-005
Heightened Def Con from 4.99713e-005 to 4.99716e-005
Heightened Def Con from 5e-005 to 5e-005
Heightened Def Con from 5e-005 to 5e-005
Heightened Def Con from 5.00002e-005 to 5.00012e-005
Heightened Def Con from 5.00034e-005 to 5.00034e-005
Heightened Def Con from 5.00043e-005 ++to 5.00044e-005
Heightened Def Con from 5.00319e-005 to 5.00319e-005
Heightened Def Con from 5.00491e-005 to 5.00491e-005
Heightened Def Con from 5.00503e-005 to 5.00503e-005
Heightened Def Con from 5.00518e-005 to 5.00518e-005
Heightened Def Con from 5.00549e-005 to 5.00549e-005
Heightened Def Con from 5.00638e-005 to 5.00638e-005
Heightened Def Con from 5.00728e-005 to 5.00728e-005
Heightened Def Con from 5.00779e-005 to 5.00779e-005
Heightened Def Con from 5.00792e-005 to 5.00792e-005
Heightened Def Con from 5.00794e-005 to 5.00794e-005
Heightened Def Con from 5.02062e-005 to 5.02063e-005
Heightened Def Con from 5.02079e-005 to 5.02089e-005
Heightened Def Con from 5.0471e-005 ++to 5.0471e-005
Heightened Def Con from 5.0471e-005 +++++to 5.04712e-005
Heightened Def Con from 5.05958e-005 to 5.05968e-005
Heightened Def Con from 5.06532e-005 to 5.06532e-005
Heightened Def Con from 5.06532e-005 to 5.06552e-005
Heightened Def Con from 5.06973e-005 to 5.06973e-005
Heightened Def Con from 5.07028e-005 to 5.07038e-005
Heightened Def Con from 5.07038e-005 to 5.07038e-005
Heightened Def Con from 5.07092e-005 to 5.07092e-005
Heightened Def Con from 5.071e-005 to 5.07101e-005
Heightened Def Con from 5.07101e-005 to 5.07101e-005
Heightened Def Con from 5.07755e-005 to 5.07756e-005
Heightened Def Con from 5.07779e-005 to 5.07779e-005
[...]
Heightened Def Con from 0.000988037 to 0.000988037
Heightened Def Con from 0.00098806 to 0.00098806
Heightened Def Con from 0.000988071 to 0.000988071
Heightened Def Con from 0.000988504 to 0.000988505
Heightened Def Con from 0.000988579 to 0.000988579
Heightened Def Con from 0.000988579 to 0.000988579
Heightened Def Con from 0.000988579 to 0.00098858
Heightened Def Con from 0.000988716 +to 0.000988716
Heightened Def Con from 0.000988726 to 0.000988727
Heightened Def Con from 0.000988732 to 0.000988732
Heightened Def Con from 0.000988732 to 0.000988733
Heightened Def Con from 0.000988734 ++++to 0.000988734
Heightened Def Con from 0.000988734 +to 0.000988735
Heightened Def Con from 0.00098884 +to 0.000988841
Heightened Def Con from 0.000988925 +to 0.000988926
Heightened Def Con from 0.000988926 +to 0.000988927
Heightened Def Con from 0.000988936 to 0.000988936
Heightened Def Con from 0.000988936 to 0.000988936
Heightened Def Con from 0.000988936 to 0.000988937
Heightened Def Con from 0.000988937 to 0.000988937
Heightened Def Con from 0.000989003 to 0.000989003
Heightened Def Con from 0.00098903 to 0.00098903
Heightened Def Con from 0.000989033 to 0.000989033
Heightened Def Con from 0.000989035 to 0.000989035
Heightened Def Con from 0.000989035 +to 0.000989035
Heightened Def Con from 0.000989037 to 0.000989037
Heightened Def Con from 0.000989038 to 0.000989038
Heightened Def Con from 0.000989038 to 0.000989038
Heightened Def Con from 0.000989038 to 0.000989038
Heightened Def Con from 0.000989038 to 0.000989039
Heightened Def Con from 0.000989039 +to 0.00098904
Heightened Def Con from 0.00098904 to 0.00098904
Heightened Def Con from 0.000989046 to 0.000989046
Heightened Def Con from 0.000989048 to 0.000989048
Heightened Def Con from 0.000989048 to 0.000989048
Heightened Def Con from 0.000989071 to 0.000989071
Heightened Def Con from 0.000989104 to 0.000989104
Heightened Def Con from 0.000989113 to 0.000989113
Heightened Def Con from 0.000989615 to 0.000989616
Heightened Def Con from 0.000989634 to 0.000989635
Heightened Def Con from 0.000989635 to 0.000989635
Heightened Def Con from 0.000989732 +to 0.000989733
Heightened Def Con from 0.000989907 +to 0.000989908
Heightened Def Con from 0.00098993 +to 0.00098993
Heightened Def Con from 0.00098996 to 0.00098996
Heightened Def Con from 0.00099 +to 0.00099
Heightened Def Con from 0.00099 to 0.00099
Heightened Def Con from 0.00099003 to 0.000990031
Heightened Def Con from 0.000990032 to 0.000990032
Heightened Def Con from 0.000990033 to 0.000990033
Heightened Def Con from 0.000990034 to 0.000990034
Heightened Def Con from 0.000990093 to 0.000990094
Heightened Def Con from 0.000990387 to 0.000990387
Heightened Def Con from 0.000990387 to 0.000990387
Heightened Def Con from 0.000990387 +to 0.000990388
Heightened Def Con from 0.000990511 to 0.000990511
Heightened Def Con from 0.000990511 to 0.000990511
Heightened Def Con from 0.000990698 +++to 0.000990699
Heightened Def Con from 0.0009907 to 0.000990702
Heightened Def Con from 0.000990704 to 0.000990704
Heightened Def Con from 0.000990704 to 0.000990704
Heightened Def Con from 0.000990704 ++to 0.000990704
Heightened Def Con from 0.000990704 ++++++++to 0.000990704
Heightened Def Con from 0.000990705 to 0.000990707
Heightened Def Con from 0.000990712 +to 0.000990713
Heightened Def Con from 0.000990719 +to 0.000990719
Heightened Def Con from 0.000990719 to 0.000990721
Heightened Def Con from 0.000990721 to 0.000990721
Heightened Def Con from 0.000990722 to 0.000990722
Heightened Def Con from 0.000990763 +to 0.000990763
Heightened Def Con from 0.000990805 ++to 0.000990805
Heightened Def Con from 0.000990834 to 0.000990834
Heightened Def Con from 0.000990834 to 0.000990834
Heightened Def Con from 0.00099085 ++to 0.000990851
Heightened Def Con from 0.000990885 +to 0.000990885
Heightened Def Con from 0.000990885 to 0.000990885
Heightened Def Con from 0.000990916 to 0.000990916
Heightened Def Con from 0.000990927 +to 0.000990927
Heightened Def Con from 0.000990957 to 0.000990957
Heightened Def Con from 0.000990957 +to 0.000990957
Heightened Def Con from 0.000990957 to 0.000990957
Heightened Def Con from 0.000990958 to 0.000990958
Heightened Def Con from 0.000990958 to 0.000990958
Heightened Def Con from 0.000991 to 0.000991
Heightened Def Con from 0.00099103 to 0.00099103
Heightened Def Con from 0.00099103 to 0.000991031
Heightened Def Con from 0.000991037 to 0.000991037
Heightened Def Con from 0.000991037 to 0.000991037
Heightened Def Con from 0.000991038 +to 0.000991038
Heightened Def Con from 0.00099104 to 0.00099104
Heightened Def Con from 0.00099104 to 0.00099104
Heightened Def Con from 0.00099104 to 0.00099104
Heightened Def Con from 0.000991041 to 0.000991041
Heightened Def Con from 0.000991041 to 0.000991042
Heightened Def Con from 0.000991043 to 0.000991043
Heightened Def Con from 0.000991277 to 0.000991277
Heightened Def Con from 0.000991605 to 0.000991605
Heightened Def Con from 0.000991605 to 0.000991605
Heightened Def Con from 0.00099165 to 0.00099165
Heightened Def Con from 0.00099165 to 0.00099165
Heightened Def Con from 0.00099165 +to 0.00099165
Heightened Def Con from 0.00099165 to 0.000991651
Heightened Def Con from 0.000992 to 0.000992
Heightened Def Con from 0.000992033 to 0.000992033
Heightened Def Con from 0.000992034 to 0.000992034
Heightened Def Con from 0.000992036 to 0.000992036
Heightened Def Con from 0.000992036 to 0.000992036
Heightened Def Con from 0.000992036 to 0.000992038
Heightened Def Con from 0.000992068 to 0.000992068
Heightened Def Con from 0.000992073 to 0.000992073
Heightened Def Con from 0.000992331 +++to 0.000992332
Heightened Def Con from 0.000992333 to 0.000992333
Heightened Def Con from 0.00099263 to 0.00099263
Heightened Def Con from 0.00099263 to 0.00099263
Heightened Def Con from 0.000992696 to 0.000992696
Heightened Def Con from 0.000992696 +to 0.000992696
Heightened Def Con from 0.000992696 ++to 0.000992697
Heightened Def Con from 0.000992697 +to 0.000992697
Heightened Def Con from 0.000992697 to 0.000992697
Heightened Def Con from 0.000992739 to 0.000992739
Heightened Def Con from 0.000992739 to 0.000992739
Heightened Def Con from 0.000992776 +++to 0.000992776
Heightened Def Con from 0.000992776 to 0.000992776
Heightened Def Con from 0.000992776 to 0.000992776
Heightened Def Con from 0.00099278 +to 0.000992781
Heightened Def Con from 0.000992783 +to 0.000992784
Heightened Def Con from 0.000992784 to 0.000992784
Heightened Def Con from 0.000992784 ++to 0.000992785
Heightened Def Con from 0.000992785 to 0.000992785
Heightened Def Con from 0.000992785 to 0.000992786
Heightened Def Con from 0.000992789 +to 0.00099279
Heightened Def Con from 0.00099279 to 0.000992791
Heightened Def Con from 0.000992818 ++to 0.000992819
Heightened Def Con from 0.000992819 to 0.000992819
Heightened Def Con from 0.000992819 +to 0.000992819
Heightened Def Con from 0.000992843 +to 0.000992843
Heightened Def Con from 0.000992847 +to 0.000992847
Heightened Def Con from 0.000992847 to 0.000992847
Heightened Def Con from 0.000992935 +to 0.000992935
Heightened Def Con from 0.000992935 to 0.000992935
Heightened Def Con from 0.000992935 +++to 0.000992935
Heightened Def Con from 0.000992935 to 0.000992936
Heightened Def Con from 0.000992945 to 0.000992945
Heightened Def Con from 0.000992945 to 0.000992945
Heightened Def Con from 0.000992953 +to 0.000992953
Heightened Def Con from 0.000992956 to 0.000992956
Heightened Def Con from 0.000992963 +to 0.000992965
Heightened Def Con from 0.00099303 to 0.00099303
Heightened Def Con from 0.00099303 to 0.00099303
Heightened Def Con from 0.000993033 to 0.000993033
Heightened Def Con from 0.000993034 +to 0.000993034
Heightened Def Con from 0.000993035 to 0.000993035
Heightened Def Con from 0.000993036 to 0.000993036
Heightened Def Con from 0.000993036 to 0.000993036
Heightened Def Con from 0.000993036 to 0.000993036
Heightened Def Con from 0.000993036 to 0.000993037
Heightened Def Con from 0.000993037 to 0.000993038
Heightened Def Con from 0.000993038 to 0.000993038
Heightened Def Con from 0.000993039 to 0.000993039
Heightened Def Con from 0.000993039 +to 0.000993039
Heightened Def Con from 0.000993039 ++to 0.000993039
Heightened Def Con from 0.000993039 to 0.000993039
Heightened Def Con from 0.000993047 to 0.000993047
Heightened Def Con from 0.000993047 to 0.000993047
Heightened Def Con from 0.000993049 to 0.000993049
Heightened Def Con from 0.000993049 to 0.000993049
Heightened Def Con from 0.00099305 to 0.00099305
Heightened Def Con from 0.00099305 to 0.000993051
Heightened Def Con from 0.000993051 to 0.000993051
Heightened Def Con from 0.000993414 to 0.000993414
Heightened Def Con from 0.000993741 to 0.000993742
Heightened Def Con from 0.000994 +to 0.000994
Heightened Def Con from 0.000994001 to 0.000994001
Heightened Def Con from 0.000994004 to 0.000994004
Heightened Def Con from 0.000994004 to 0.000994004
Heightened Def Con from 0.000994005 to 0.000994006
Heightened Def Con from 0.000994013 to 0.000994014
Heightened Def Con from 0.000994014 to 0.000994015
Heightened Def Con from 0.00099403 to 0.00099403
Heightened Def Con from 0.000994031 to 0.000994031
Heightened Def Con from 0.000994031 +to 0.000994031
Heightened Def Con from 0.000994038 to 0.000994038
Heightened Def Con from 0.00099407 to 0.00099407
Heightened Def Con from 0.00099407 +to 0.000994071
Heightened Def Con from 0.000994081 to 0.000994081
Heightened Def Con from 0.000994085 to 0.000994085
Heightened Def Con from 0.000994587 to 0.000994587
Heightened Def Con from 0.000994587 +to 0.000994588
Heightened Def Con from 0.000994588 to 0.000994589
Heightened Def Con from 0.000994589 to 0.000994589
Heightened Def Con from 0.000994589 +++++to 0.000994591
Heightened Def Con from 0.000994591 to 0.000994591
Heightened Def Con from 0.000994591 +++to 0.000994591
Heightened Def Con from 0.000994591 +to 0.000994592
Heightened Def Con from 0.000994592 to 0.000994592
Heightened Def Con from 0.000994611 +to 0.000994611
Heightened Def Con from 0.000994629 to 0.000994629
Heightened Def Con from 0.000994629 ++to 0.000994629
Heightened Def Con from 0.000994629 to 0.000994629
Heightened Def Con from 0.000994629 to 0.000994629
Heightened Def Con from 0.000994629 to 0.000994629
Heightened Def Con from 0.000994629 ++to 0.00099463
Heightened Def Con from 0.00099464 to 0.00099464
Heightened Def Con from 0.00099464 +to 0.00099464
Heightened Def Con from 0.00099464 to 0.00099464
Heightened Def Con from 0.00099464 to 0.00099464
Heightened Def Con from 0.00099464 to 0.000994641
Heightened Def Con from 0.000994698 +++to 0.000994698
Heightened Def Con from 0.000994707 to 0.000994708
Heightened Def Con from 0.00099477 to 0.00099477
Heightened Def Con from 0.00099477 ++to 0.000994771
Heightened Def Con from 0.000994803 to 0.000994803
Heightened Def Con from 0.000994803 ++to 0.000994803
Heightened Def Con from 0.000994807 +to 0.000994807
Heightened Def Con from 0.000994807 to 0.000994807
Heightened Def Con from 0.000994811 +to 0.000994811
Heightened Def Con from 0.000994811 to 0.000994811
Heightened Def Con from 0.000994812 to 0.000994813
Heightened Def Con from 0.000994813 +++to 0.000994813
Heightened Def Con from 0.000994816 to 0.000994816
Heightened Def Con from 0.000994816 to 0.000994816
Heightened Def Con from 0.000994816 ++to 0.000994817
Heightened Def Con from 0.000994845 ++++to 0.000994845
Heightened Def Con from 0.000994845 +to 0.000994846
Heightened Def Con from 0.000994874 +to 0.000994875
Heightened Def Con from 0.000994875 to 0.000994876
Heightened Def Con from 0.000994892 to 0.000994892
Heightened Def Con from 0.000994892 +to 0.000994892
Heightened Def Con from 0.000994972 to 0.000994973
Heightened Def Con from 0.000994973 to 0.000994974
Heightened Def Con from 0.000994983 ++to 0.000994984
Heightened Def Con from 0.000994984 to 0.000994984
Heightened Def Con from 0.000994984 to 0.000994984
Heightened Def Con from 0.000994985 to 0.000994985
Heightened Def Con from 0.000994985 to 0.000994985
Heightened Def Con from 0.00099503 to 0.00099503
Heightened Def Con from 0.00099503 +to 0.00099503
Heightened Def Con from 0.00099503 to 0.000995031
Heightened Def Con from 0.000995032 +to 0.000995032
Heightened Def Con from 0.000995034 +to 0.000995035
Heightened Def Con from 0.000995035 to 0.000995036
Heightened Def Con from 0.00099504 to 0.00099504
Heightened Def Con from 0.00099504 to 0.000995041
Heightened Def Con from 0.000995043 to 0.000995043
Heightened Def Con from 0.000995044 to 0.000995044
Heightened Def Con from 0.000995044 to 0.000995046
Heightened Def Con from 0.000995049 to 0.000995049
Heightened Def Con from 0.000995049 to 0.000995049
Heightened Def Con from 0.000995049 to 0.00099505
Heightened Def Con from 0.000995084 to 0.000995084
Heightened Def Con from 0.000995321 to 0.000995321
Heightened Def Con from 0.000995413 +to 0.000995413
Heightened Def Con from 0.000995874 to 0.000995874
Heightened Def Con from 0.000995894 to 0.000995895
Heightened Def Con from 0.000995963 to 0.000995963
Heightened Def Con from 0.000995963 +to 0.000995963
Heightened Def Con from 0.000995963 to 0.000995963
Heightened Def Con from 0.000995963 to 0.000995963
Heightened Def Con from 0.000995968 to 0.000995968
Heightened Def Con from 0.000995968 to 0.000995968
Heightened Def Con from 0.000995968 to 0.000995968
Heightened Def Con from 0.00099603 +++to 0.00099603
Heightened Def Con from 0.000996033 to 0.000996033
Heightened Def Con from 0.000996034 to 0.000996034
Heightened Def Con from 0.000996034 to 0.000996034
Heightened Def Con from 0.000996035 to 0.000996035
Heightened Def Con from 0.000996035 to 0.000996036
Heightened Def Con from 0.000996037 to 0.000996038
Heightened Def Con from 0.00099604 to 0.00099604
Heightened Def Con from 0.000996071 to 0.000996073
Heightened Def Con from 0.000996239 +to 0.000996239
Heightened Def Con from 0.000996239 +++to 0.00099624
Heightened Def Con from 0.00099686 to 0.00099686
Heightened Def Con from 0.000996861 to 0.000996861
Heightened Def Con from 0.000996861 +to 0.000996861
Heightened Def Con from 0.000996861 to 0.000996861
Heightened Def Con from 0.000996861 to 0.000996861
Heightened Def Con from 0.000996927 ++to 0.000996927
Heightened Def Con from 0.000996927 +to 0.000996928
Heightened Def Con from 0.000996928 +++++++to 0.000996929
Heightened Def Con from 0.00099693 +to 0.00099693
Heightened Def Con from 0.000996961 to 0.000996962
Heightened Def Con from 0.000996962 +to 0.000996963
Heightened Def Con from 0.000996964 to 0.000996964
Heightened Def Con from 0.00099697 to 0.00099697
Heightened Def Con from 0.00099697 +to 0.00099697
Heightened Def Con from 0.000997003 to 0.000997003
Heightened Def Con from 0.000997003 to 0.000997004
Heightened Def Con from 0.000997006 to 0.000997006
Heightened Def Con from 0.000997006 to 0.000997007
Heightened Def Con from 0.000997007 to 0.000997007
Heightened Def Con from 0.000997007 ++to 0.000997007
Heightened Def Con from 0.000997007 +to 0.000997009
Heightened Def Con from 0.000997009 to 0.000997009
Heightened Def Con from 0.000997009 to 0.00099701
Heightened Def Con from 0.00099701 to 0.00099701
Heightened Def Con from 0.00099701 ++++to 0.00099701
Heightened Def Con from 0.00099701 +to 0.00099701
Heightened Def Con from 0.00099701 to 0.00099701
Heightened Def Con from 0.000997031 to 0.000997031
Heightened Def Con from 0.000997031 to 0.000997032
Heightened Def Con from 0.000997032 to 0.000997032
Heightened Def Con from 0.000997032 to 0.000997032
Heightened Def Con from 0.000997032 to 0.000997032
Heightened Def Con from 0.000997032 to 0.000997032
Heightened Def Con from 0.000997035 to 0.000997035
Heightened Def Con from 0.000997035 to 0.000997035
Heightened Def Con from 0.000997044 to 0.000997044
Heightened Def Con from 0.000997044 +to 0.000997044
Heightened Def Con from 0.000997045 to 0.000997045
Heightened Def Con from 0.000997045 to 0.000997045
Heightened Def Con from 0.000997045 to 0.000997046
Heightened Def Con from 0.000997047 to 0.000997047
Heightened Def Con from 0.000997047 to 0.000997047
Heightened Def Con from 0.000997071 to 0.000997071
Heightened Def Con from 0.000997075 to 0.000997075
Heightened Def Con from 0.000997192 to 0.000997192
Heightened Def Con from 0.000997192 to 0.000997194
Heightened Def Con from 0.000997194 to 0.000997194
Heightened Def Con from 0.000997216 to 0.000997216
Heightened Def Con from 0.000997434 to 0.000997435
Heightened Def Con from 0.0009977 to 0.0009977
Heightened Def Con from 0.000997737 to 0.000997738
Heightened Def Con from 0.000997738 to 0.000997738
Heightened Def Con from 0.000997738 to 0.000997738
Heightened Def Con from 0.00099778 to 0.00099778
Heightened Def Con from 0.00099778 to 0.000997781
Heightened Def Con from 0.000997822 to 0.000997822
Heightened Def Con from 0.000997828 to 0.000997828
Heightened Def Con from 0.000997863 to 0.000997863
Heightened Def Con from 0.000997863 to 0.000997863
Heightened Def Con from 0.000997863 to 0.000997864
Heightened Def Con from 0.000997897 +to 0.000997898
Heightened Def Con from 0.000997923 to 0.000997923
Heightened Def Con from 0.000997923 +to 0.000997923
Heightened Def Con from 0.000997923 +to 0.000997923
Heightened Def Con from 0.000997926 to 0.000997926
Heightened Def Con from 0.000997926 to 0.000997926
Heightened Def Con from 0.000997943 to 0.000997943
Heightened Def Con from 0.00099796 ++to 0.00099796
Heightened Def Con from 0.000997961 to 0.000997961
Heightened Def Con from 0.000997961 to 0.000997963
Heightened Def Con from 0.000998 to 0.000998
Heightened Def Con from 0.000998 to 0.000998
Heightened Def Con from 0.00099803 to 0.000998031
Heightened Def Con from 0.000998073 to 0.000998073
Heightened Def Con from 0.000998086 to 0.000998087
Heightened Def Con from 0.000998143 to 0.000998144
Heightened Def Con from 0.000998424 to 0.000998425
Heightened Def Con from 0.000998426 to 0.000998426
Heightened Def Con from 0.000998426 to 0.000998426
Heightened Def Con from 0.000998426 to 0.000998426
Heightened Def Con from 0.000998647 to 0.000998648
Heightened Def Con from 0.000998662 +to 0.000998662
Heightened Def Con from 0.000998662 to 0.000998662
Heightened Def Con from 0.000998792 to 0.000998793
Heightened Def Con from 0.000998825 +to 0.000998825
Heightened Def Con from 0.000998825 +to 0.000998826
Heightened Def Con from 0.000998826 +to 0.000998826
Heightened Def Con from 0.000998886 to 0.000998886
Heightened Def Con from 0.000998886 ++to 0.000998886
Heightened Def Con from 0.000998886 to 0.000998886
Heightened Def Con from 0.000998886 to 0.000998886
Heightened Def Con from 0.000998926 to 0.000998927
Heightened Def Con from 0.000999 ++to 0.000999001
Heightened Def Con from 0.000999003 to 0.000999004
Heightened Def Con from 0.000999033 to 0.000999033
Heightened Def Con from 0.000999033 to 0.000999034
Heightened Def Con from 0.000999037 to 0.000999037
Heightened Def Con from 0.000999037 +to 0.000999038
Heightened Def Con from 0.000999039 +to 0.000999039
Heightened Def Con from 0.00099904 to 0.00099904
Heightened Def Con from 0.000999041 +to 0.000999041
Heightened Def Con from 0.000999041 to 0.000999042
Heightened Def Con from 0.000999042 to 0.000999042
Heightened Def Con from 0.000999042 to 0.000999042
Heightened Def Con from 0.000999139 to 0.00099914
Heightened Def Con from 0.000999816 to 0.000999816
Heightened Def Con from 0.000999817 to 0.000999818
Heightened Def Con from 0.000999821 to 0.000999823
Heightened Def Con from 0.000999823 to 0.000999823
Heightened Def Con from 0.000999823 to 0.000999824
Heightened Def Con from 0.000999868 to 0.000999869

Date: Mon Jun 22 10:20:32 2015
Total elapsed time: 1253.864 seconds.

tnom = 27
temp = 27
method = modified trap
totiter = 31261297
traniter = 31260997
tranpoints = 3101118
accept = 564799
rejected = 2581149
matrix size = 90
fillins = 40
solver = Normal
Thread vector: 12.9/9.4[2] 9.4/6.1[2] 1.1/3.3[1] 0.6/74.4[1]  2592/500
Matrix Compiler1:     350 opcodes  2.7/[2.3]/2.8
Matrix Compiler2: 7.12 KB object code size  1.3/2.3/[0.9]


