Circuit: * C:\Users\jcasa\Documents\projects\HVSquareWave\ltspice\halfbridge_implant.asc

WARNING: Node N011 is floating.
WARNING: Node N021 is floating.
WARNING: Node N010 is floating.
WARNING: Node N020 is floating.

Direct Newton iteration for .op point succeeded.

Date: Fri Jun 26 15:46:08 2015
Total elapsed time: 17.821 seconds.

tnom = 27
temp = 27
method = modified trap
totiter = 658018
traniter = 657996
tranpoints = 173503
accept = 129604
rejected = 43899
matrix size = 91
fillins = 40
solver = Normal
Thread vector: 13.5/10.3[2] 10.1/6.3[2] 0.8/1.4[1] 0.8/82.8[1]  2592/500
Matrix Compiler1: 6.84 KB object code size  2.7/2.3/[0.9]
Matrix Compiler2: 7.52 KB object code size  1.3/2.3/[0.8]


