Circuit: * C:\Users\jcasa\Documents\projects\HVSquareWave\ltspice\halfbridge.asc

Direct Newton iteration for .op point succeeded.
Changing Tseed to 1.95312e-012
Changing Tseed to 1.95312e-014
Changing Tseed to 1.95312e-011
Heightened Def Con from 1.80001e-005 to 1.80031e-005
Heightened Def Con from 1.80053e-005 to 1.80083e-005

Date: Fri Jun 12 10:41:38 2015
Total elapsed time: 2.077 seconds.

tnom = 27
temp = 27
method = modified trap
totiter = 50686
traniter = 50660
tranpoints = 13130
accept = 9644
rejected = 3485
matrix size = 57
fillins = 26
solver = Normal
Matrix Compiler1: 4.58 KB object code size  2.2/1.7/[0.6]
Matrix Compiler2: 4.83 KB object code size  0.9/1.6/[0.8]


