Circuit: * C:\Users\jcasa\Documents\projects\UFHVSW\ltspice\halfbridge.asc

Direct Newton iteration for .op point succeeded.
Changing Tseed to 1.95312e-012

Date: Mon Mar 21 11:28:01 2016
Total elapsed time: 0.269 seconds.

tnom = 27
temp = 27
method = modified trap
totiter = 25903
traniter = 25895
tranpoints = 7264
accept = 5494
rejected = 1769
matrix size = 47
fillins = 8
solver = Normal
Matrix Compiler1: 2.83 KB object code size  0.6/0.3/[0.2]
Matrix Compiler2: 3.64 KB object code size  0.3/0.4/[0.2]


