Circuit: * C:\Users\jcasa\Documents\projects\UFHVSW\ltspice\halfbridge_implant.asc

WARNING: Node N011 is floating.
WARNING: Node N021 is floating.
WARNING: Node N010 is floating.
WARNING: Node N020 is floating.

Direct Newton iteration for .op point succeeded.

Date: Mon Mar 07 11:10:32 2016
Total elapsed time: 8.949 seconds.

tnom = 27
temp = 27
method = modified trap
totiter = 658467
traniter = 658445
tranpoints = 173704
accept = 129827
rejected = 43877
matrix size = 91
fillins = 40
solver = Normal
Thread vector: 7.8/6.7[5] 5.9/4.0[5] 0.5/0.8[1] 0.3/1.1[1]  2592/500
Matrix Compiler1: 6.85 KB object code size  1.7/0.9/[0.6]
Matrix Compiler2: 7.53 KB object code size  0.7/0.8/[0.4]


