Circuit: * C:\Users\jcasa\Documents\projects\HVSquareWave\ltspice\trafo.asc

WARNING: Less than two connections to node LV.  This node is used by V4.
WARNING: Less than two connections to node V+.  This node is used by V1.
WARNING: Less than two connections to node VCC.  This node is used by V5.
WARNING: Less than two connections to node V-.  This node is used by V2.
WARNING: Less than two connections to node HI.  This node is used by V7.
.OP point found by inspection.

Date: Wed Jan 07 13:09:58 2015
Total elapsed time: 9.933 seconds.

tnom = 27
temp = 27
method = modified trap
totiter = 1782130
traniter = 1782130
tranpoints = 891066
accept = 705352
rejected = 185714
matrix size = 25
fillins = 0
solver = Normal
Matrix Compiler1: 772 bytes object code size  0.4/0.4/[0.2]
Matrix Compiler2: 1.38 KB object code size  0.3/0.5/[0.2]


